/*---------------------------------------------------------------------------*\
| =========                 |                                                 |
| \\      /  F ield         | OpenFOAM: The Open Source CFD Toolbox           |
|  \\    /   O peration     | Version:  2006                                  |
|   \\  /    A nd           | Website:  www.openfoam.com                      |
|    \\/     M anipulation  |                                                 |
\*---------------------------------------------------------------------------*/
Build  : 295eef47-20201012 OPENFOAM=2006 patch=201012
Arch   : "LSB;label=32;scalar=64"
Exec   : blockMesh
Date   : Jun 08 2021
Time   : 15:27:45
Host   : pc-HP-Z440-Workstation
PID    : 29505
I/O    : uncollated
Case   : /home/pc/flowAroundTriangles/mesh
nProcs : 1
trapFpe: Floating point exception trapping enabled (FOAM_SIGFPE).
fileModificationChecking : Monitoring run-time modified files using timeStampMaster (fileModificationSkew 5, maxFileModificationPolls 20)
allowSystemOperations : Allowing user-supplied system call operations

// * * * * * * * * * * * * * * * * * * * * * * * * * * * * * * * * * * * * * //
Create time

Creating block mesh from "system/blockMeshDict"
Creating block edges
No non-planar block faces defined
Creating topology blocks
Creating topology patches

Creating block mesh topology
--> FOAM Warning : 
    From Foam::polyMesh::polyMesh(const Foam::IOobject&, Foam::pointField&&, const cellShapeList&, const faceListList&, const wordList&, const Foam::PtrList<Foam::dictionary>&, const Foam::word&, const Foam::word&, bool)
    in file meshes/polyMesh/polyMeshFromShapeMesh.C at line 915
    Found 14 undefined faces in mesh; adding to default patch defaultFaces

Check topology

	Basic statistics
		Number of internal faces : 7
		Number of boundary faces : 28
		Number of defined boundary faces : 28
		Number of undefined boundary faces : 0
	Checking patch -> block consistency

Creating block offsets
Creating merge list (topological search)....

Creating polyMesh from blockMesh
Creating patches
Creating cells
Creating points with scale 0.01
    Block 0 cell size :
        i : 0.005 .. 0.005
        j : 0.005 .. 0.005
        k : 0.005 .. 0.005

    Block 1 cell size :
        i : 0.00585714 .. 0.00585714
        j : 0.00707107 .. 0.00707107
        k : 0.005 .. 0.005

    Block 2 cell size :
        i : 0.00394737 .. 0.00394737
        j : 0.005 .. 0.005
        k : 0.005 .. 0.005

    Block 3 cell size :
        i : 0.00509902 .. 0.00509902
        j : 0.005 .. 0.005
        k : 0.005 .. 0.005

    Block 4 cell size :
        i : 0.005 .. 0.005
        j : 0.00566667 .. 0.00566667
        k : 0.005 .. 0.005

    Block 5 cell size :
        i : 0.005 .. 0.005
        j : 0.005 .. 0.005
        k : 0.005 .. 0.005

    Block 6 cell size :
        i : 0.00585714 .. 0.00585714
        j : 0.005 .. 0.005
        k : 0.005 .. 0.005


There are no merge patch pairs

Writing polyMesh with 0 cellZones
----------------
Mesh Information
----------------
  boundingBox: (0 0 0) (0.6 0.4 0.005)
  nPoints: 18360
  nCells: 8960
  nFaces: 36060
  nInternalFaces: 17700
----------------
Patches
----------------
  patch 0 (start: 17700 size: 80) name: inlet
  patch 1 (start: 17780 size: 76) name: outlet
  patch 2 (start: 17856 size: 48) name: triangle
  patch 3 (start: 17904 size: 128) name: upperWall
  patch 4 (start: 18032 size: 108) name: lowerWall
  patch 5 (start: 18140 size: 17920) name: defaultFaces

End

