/*---------------------------------------------------------------------------*\
| =========                 |                                                 |
| \\      /  F ield         | OpenFOAM: The Open Source CFD Toolbox           |
|  \\    /   O peration     | Version:  2006                                  |
|   \\  /    A nd           | Website:  www.openfoam.com                      |
|    \\/     M anipulation  |                                                 |
\*---------------------------------------------------------------------------*/
Build  : 295eef47-20201012 OPENFOAM=2006 patch=201012
Arch   : "LSB;label=32;scalar=64"
Exec   : decomposePar
Date   : Jun 08 2021
Time   : 23:20:52
Host   : pc-HP-Z440-Workstation
PID    : 868
I/O    : uncollated
Case   : /home/pc/flowAroundTriangles/simple_laminar
nProcs : 1
trapFpe: Floating point exception trapping enabled (FOAM_SIGFPE).
fileModificationChecking : Monitoring run-time modified files using timeStampMaster (fileModificationSkew 5, maxFileModificationPolls 20)
allowSystemOperations : Allowing user-supplied system call operations

// * * * * * * * * * * * * * * * * * * * * * * * * * * * * * * * * * * * * * //
Create time

--> FOAM Warning : 
    From static Foam::IOstreamOption::compressionType Foam::IOstreamOption::compressionEnum(const Foam::word&, Foam::IOstreamOption::compressionType)
    in file db/IOstreams/IOstreams/IOstreamOption.C at line 115
    Unknown compression specifier 'uncompressed', using compression off


Decomposing mesh region0

Create mesh

Calculating distribution of cells
Selecting decompositionMethod simple [4]

Finished decomposition in 0.01 s

Calculating original mesh data

Distributing cells to processors

Distributing faces to processors

Distributing points to processors

Constructing processor meshes
--> FOAM Warning : 
    From static Foam::IOstreamOption::compressionType Foam::IOstreamOption::compressionEnum(const Foam::word&, Foam::IOstreamOption::compressionType)
    in file db/IOstreams/IOstreams/IOstreamOption.C at line 115
    Unknown compression specifier 'uncompressed', using compression off

Processor 0
    Number of cells = 2416
    Number of faces shared with processor 1 = 43
    Number of faces shared with processor 2 = 58
    Number of processor patches = 2
    Number of processor faces = 101
    Number of boundary faces = 4939
--> FOAM Warning : 
    From static Foam::IOstreamOption::compressionType Foam::IOstreamOption::compressionEnum(const Foam::word&, Foam::IOstreamOption::compressionType)
    in file db/IOstreams/IOstreams/IOstreamOption.C at line 115
    Unknown compression specifier 'uncompressed', using compression off

Processor 1
    Number of cells = 2564
    Number of faces shared with processor 0 = 43
    Number of faces shared with processor 3 = 63
    Number of processor patches = 2
    Number of processor faces = 106
    Number of boundary faces = 5232
--> FOAM Warning : 
    From static Foam::IOstreamOption::compressionType Foam::IOstreamOption::compressionEnum(const Foam::word&, Foam::IOstreamOption::compressionType)
    in file db/IOstreams/IOstreams/IOstreamOption.C at line 115
    Unknown compression specifier 'uncompressed', using compression off

Processor 2
    Number of cells = 2564
    Number of faces shared with processor 0 = 58
    Number of faces shared with processor 3 = 38
    Number of processor patches = 2
    Number of processor faces = 96
    Number of boundary faces = 5264
--> FOAM Warning : 
    From static Foam::IOstreamOption::compressionType Foam::IOstreamOption::compressionEnum(const Foam::word&, Foam::IOstreamOption::compressionType)
    in file db/IOstreams/IOstreams/IOstreamOption.C at line 115
    Unknown compression specifier 'uncompressed', using compression off

Processor 3
    Number of cells = 2416
    Number of faces shared with processor 1 = 63
    Number of faces shared with processor 2 = 38
    Number of processor patches = 2
    Number of processor faces = 101
    Number of boundary faces = 4933

Number of processor faces = 202
Max number of cells = 2564 (2.97189% above average 2490)
Max number of processor patches = 2 (0% above average 2)
Max number of faces between processors = 106 (4.9505% above average 101)

Time = 0

Processor 0: field transfer
--> FOAM Warning : 
    From static Foam::IOstreamOption::compressionType Foam::IOstreamOption::compressionEnum(const Foam::word&, Foam::IOstreamOption::compressionType)
    in file db/IOstreams/IOstreams/IOstreamOption.C at line 115
    Unknown compression specifier 'uncompressed', using compression off
Processor 1: field transfer
--> FOAM Warning : 
    From static Foam::IOstreamOption::compressionType Foam::IOstreamOption::compressionEnum(const Foam::word&, Foam::IOstreamOption::compressionType)
    in file db/IOstreams/IOstreams/IOstreamOption.C at line 115
    Unknown compression specifier 'uncompressed', using compression off
Processor 2: field transfer
--> FOAM Warning : 
    From static Foam::IOstreamOption::compressionType Foam::IOstreamOption::compressionEnum(const Foam::word&, Foam::IOstreamOption::compressionType)
    in file db/IOstreams/IOstreams/IOstreamOption.C at line 115
    Unknown compression specifier 'uncompressed', using compression off
Processor 3: field transfer
--> FOAM Warning : 
    From static Foam::IOstreamOption::compressionType Foam::IOstreamOption::compressionEnum(const Foam::word&, Foam::IOstreamOption::compressionType)
    in file db/IOstreams/IOstreams/IOstreamOption.C at line 115
    Unknown compression specifier 'uncompressed', using compression off

End

/*---------------------------------------------------------------------------*\
| =========                 |                                                 |
| \\      /  F ield         | OpenFOAM: The Open Source CFD Toolbox           |
|  \\    /   O peration     | Version:  2006                                  |
|   \\  /    A nd           | Website:  www.openfoam.com                      |
|    \\/     M anipulation  |                                                 |
\*---------------------------------------------------------------------------*/
Build  : 295eef47-20201012 OPENFOAM=2006 patch=201012
Arch   : "LSB;label=32;scalar=64"
Exec   : renumberMesh -overwrite -parallel
Date   : Jun 08 2021
Time   : 23:20:52
Host   : pc-HP-Z440-Workstation
PID    : 876
I/O    : uncollated
Case   : /home/pc/flowAroundTriangles/simple_laminar
nProcs : 4
Hosts  :
(
    (pc-HP-Z440-Workstation 4)
)
Pstream initialized with:
    floatTransfer      : 0
    nProcsSimpleSum    : 0
    commsType          : nonBlocking
    polling iterations : 0
trapFpe: Floating point exception trapping enabled (FOAM_SIGFPE).
fileModificationChecking : Monitoring run-time modified files using timeStampMaster (fileModificationSkew 5, maxFileModificationPolls 20)
allowSystemOperations : Allowing user-supplied system call operations

// * * * * * * * * * * * * * * * * * * * * * * * * * * * * * * * * * * * * * //
Create time

--> FOAM Warning : 
    From static Foam::IOstreamOption::compressionType Foam::IOstreamOption::compressionEnum(const Foam::word&, Foam::IOstreamOption::compressionType)
    in file db/IOstreams/IOstreams/IOstreamOption.C at line 115
    Unknown compression specifier 'uncompressed', using compression off
Create mesh for time = 0

Mesh size: 9960
Before renumbering :
    band           : 2502
    profile        : 863107

Using default renumberMethod.

Selecting renumberMethod CuthillMcKee

Reading volScalarField: p
Reading volVectorField: U

Renumbering processor cell decomposition map cellProcAddressing
Renumbering processor face decomposition map faceProcAddressing
Renumbering processor point decomposition map pointProcAddressing
After renumbering :
    band           : 44
    profile        : 316913

Writing mesh to "constant"
End

Finalising parallel run
/*---------------------------------------------------------------------------*\
| =========                 |                                                 |
| \\      /  F ield         | OpenFOAM: The Open Source CFD Toolbox           |
|  \\    /   O peration     | Version:  2006                                  |
|   \\  /    A nd           | Website:  www.openfoam.com                      |
|    \\/     M anipulation  |                                                 |
\*---------------------------------------------------------------------------*/
Build  : 295eef47-20201012 OPENFOAM=2006 patch=201012
Arch   : "LSB;label=32;scalar=64"
Exec   : simpleFoam -parallel
Date   : Jun 08 2021
Time   : 23:20:53
Host   : pc-HP-Z440-Workstation
PID    : 902
I/O    : uncollated
Case   : /home/pc/flowAroundTriangles/simple_laminar
nProcs : 4
Hosts  :
(
    (pc-HP-Z440-Workstation 4)
)
Pstream initialized with:
    floatTransfer      : 0
    nProcsSimpleSum    : 0
    commsType          : nonBlocking
    polling iterations : 0
trapFpe: Floating point exception trapping enabled (FOAM_SIGFPE).
fileModificationChecking : Monitoring run-time modified files using timeStampMaster (fileModificationSkew 5, maxFileModificationPolls 20)
allowSystemOperations : Allowing user-supplied system call operations

// * * * * * * * * * * * * * * * * * * * * * * * * * * * * * * * * * * * * * //
Create time

--> FOAM Warning : 
    From static Foam::IOstreamOption::compressionType Foam::IOstreamOption::compressionEnum(const Foam::word&, Foam::IOstreamOption::compressionType)
    in file db/IOstreams/IOstreams/IOstreamOption.C at line 115
    Unknown compression specifier 'uncompressed', using compression off
Create mesh for time = 0


SIMPLE: convergence criteria
    field p	 tolerance 5e-05
    field U	 tolerance 1e-06

Reading field p

Reading field U

Reading/calculating face flux field phi

Selecting incompressible transport model Newtonian
Selecting turbulence model type laminar
Selecting laminar stress model Stokes
No MRF models present

No finite volume options present

Starting time loop

forceCoeffs forces:
    rho: rhoInf
    Freestream density (rhoInf) set to 1
    Not including porosity effects

Time = 1

DILUPBiCG:  Solving for Ux, Initial residual = 1, Final residual = 0.011716, No Iterations 1
DILUPBiCG:  Solving for Uy, Initial residual = 1, Final residual = 0.0480549, No Iterations 2
GAMG:  Solving for p, Initial residual = 1, Final residual = 0.0671041, No Iterations 7
time step continuity errors : sum local = 0.00676112, global = -0.000461264, cumulative = -0.000461264
ExecutionTime = 0.02 s  ClockTime = 0 s

forceCoeffs forces execute:
    Coefficients
        Cd       : 0.00163654	(pressure: 0.00152743	viscous: 0.000109114)
        Cs       : 1.00715e-19	(pressure: 0	viscous: 1.00715e-19)
        Cl       : 0.000798841	(pressure: 0.000809562	viscous: -1.07216e-05)
        CmRoll       : -1.9971e-05	(pressure: -2.02391e-05	viscous: 2.6804e-07)
        CmPitch       : 0.00188006	(pressure: 0.00158989	viscous: 0.000290167)
        CmYaw       : 4.09135e-05	(pressure: 3.81857e-05	viscous: 2.72784e-06)
        Cd(f)    : 0.000798299
        Cd(r)    : 0.000838241
        Cs(f)    : 4.09135e-05
        Cs(r)    : -4.09135e-05
        Cl(f)    : 0.00227948
        Cl(r)    : -0.00148064
Time = 2

DILUPBiCG:  Solving for Ux, Initial residual = 0.476495, Final residual = 0.0404411, No Iterations 4
DILUPBiCG:  Solving for Uy, Initial residual = 0.39128, Final residual = 0.0164882, No Iterations 3
GAMG:  Solving for p, Initial residual = 0.0375439, Final residual = 0.00203179, No Iterations 4
time step continuity errors : sum local = 0.00533969, global = -2.5005e-05, cumulative = -0.000486269
ExecutionTime = 0.03 s  ClockTime = 0 s

forceCoeffs forces execute:
    Coefficients
        Cd       : 0.00866272	(pressure: 0.00823005	viscous: 0.000432663)
        Cs       : 1.6654e-19	(pressure: 0	viscous: 1.6654e-19)
        Cl       : 0.00393486	(pressure: 0.00419357	viscous: -0.000258716)
        CmRoll       : -9.83714e-05	(pressure: -0.000104839	viscous: 6.4679e-06)
        CmPitch       : 0.0105756	(pressure: 0.00885737	viscous: 0.0017182)
        CmYaw       : 0.000216568	(pressure: 0.000205751	viscous: 1.08166e-05)
        Cd(f)    : 0.00423299
        Cd(r)    : 0.00442973
        Cs(f)    : 0.000216568
        Cs(r)    : -0.000216568
        Cl(f)    : 0.012543
        Cl(r)    : -0.00860814
Time = 3

DILUPBiCG:  Solving for Ux, Initial residual = 0.53445, Final residual = 0.0350566, No Iterations 3
DILUPBiCG:  Solving for Uy, Initial residual = 0.320839, Final residual = 0.00714388, No Iterations 4
GAMG:  Solving for p, Initial residual = 0.0137295, Final residual = 0.000831439, No Iterations 4
time step continuity errors : sum local = 0.00446488, global = -0.000261305, cumulative = -0.000747575
ExecutionTime = 0.04 s  ClockTime = 0 s

forceCoeffs forces execute:
    Coefficients
        Cd       : 0.00911365	(pressure: 0.00858131	viscous: 0.000532336)
        Cs       : -2.41341e-20	(pressure: 0	viscous: -2.41341e-20)
        Cl       : 0.00546783	(pressure: 0.00567689	viscous: -0.000209059)
        CmRoll       : -0.000136696	(pressure: -0.000141922	viscous: 5.22646e-06)
        CmPitch       : 0.00826828	(pressure: 0.00644638	viscous: 0.0018219)
        CmYaw       : 0.000227841	(pressure: 0.000214533	viscous: 1.33084e-05)
        Cd(f)    : 0.00442013
        Cd(r)    : 0.00469352
        Cs(f)    : 0.000227841
        Cs(r)    : -0.000227841
        Cl(f)    : 0.0110022
        Cl(r)    : -0.00553437
Time = 4

DILUPBiCG:  Solving for Ux, Initial residual = 0.297007, Final residual = 0.0121542, No Iterations 3
DILUPBiCG:  Solving for Uy, Initial residual = 0.214481, Final residual = 0.0139465, No Iterations 3
GAMG:  Solving for p, Initial residual = 0.0273743, Final residual = 0.00271214, No Iterations 3
time step continuity errors : sum local = 0.00676524, global = 0.000308989, cumulative = -0.000438586
ExecutionTime = 0.05 s  ClockTime = 0 s

forceCoeffs forces execute:
    Coefficients
        Cd       : 0.00775037	(pressure: 0.00731977	viscous: 0.000430601)
        Cs       : -2.95918e-20	(pressure: 0	viscous: -2.95918e-20)
        Cl       : 0.00636509	(pressure: 0.00645384	viscous: -8.87532e-05)
        CmRoll       : -0.000159127	(pressure: -0.000161346	viscous: 2.21883e-06)
        CmPitch       : 0.00335579	(pressure: 0.00205089	viscous: 0.0013049)
        CmYaw       : 0.000193759	(pressure: 0.000182994	viscous: 1.0765e-05)
        Cd(f)    : 0.00371606
        Cd(r)    : 0.00403431
        Cs(f)    : 0.000193759
        Cs(r)    : -0.000193759
        Cl(f)    : 0.00653833
        Cl(r)    : -0.000173244
Time = 5

DILUPBiCG:  Solving for Ux, Initial residual = 0.141269, Final residual = 0.00370867, No Iterations 4
DILUPBiCG:  Solving for Uy, Initial residual = 0.151209, Final residual = 0.0124098, No Iterations 3
GAMG:  Solving for p, Initial residual = 0.129669, Final residual = 0.00728778, No Iterations 3
time step continuity errors : sum local = 0.00410423, global = 3.06934e-06, cumulative = -0.000435516
ExecutionTime = 0.06 s  ClockTime = 0 s

forceCoeffs forces execute:
    Coefficients
        Cd       : 0.00681286	(pressure: 0.00650614	viscous: 0.00030672)
        Cs       : 2.57129e-21	(pressure: 0	viscous: 2.57129e-21)
        Cl       : 0.00716533	(pressure: 0.0071567	viscous: 8.62861e-06)
        CmRoll       : -0.000179133	(pressure: -0.000178918	viscous: -2.15715e-07)
        CmPitch       : -0.000425318	(pressure: -0.00120456	viscous: 0.000779245)
        CmYaw       : 0.000170321	(pressure: 0.000162653	viscous: 7.66799e-06)
        Cd(f)    : 0.0032273
        Cd(r)    : 0.00358556
        Cs(f)    : 0.000170321
        Cs(r)    : -0.000170321
        Cl(f)    : 0.00315735
        Cl(r)    : 0.00400798
Time = 6

DILUPBiCG:  Solving for Ux, Initial residual = 0.116711, Final residual = 0.00411703, No Iterations 3
DILUPBiCG:  Solving for Uy, Initial residual = 0.12389, Final residual = 0.00376822, No Iterations 4
GAMG:  Solving for p, Initial residual = 0.130208, Final residual = 0.00628062, No Iterations 3
time step continuity errors : sum local = 0.00317646, global = -4.02506e-05, cumulative = -0.000475767
ExecutionTime = 0.06 s  ClockTime = 0 s

forceCoeffs forces execute:
    Coefficients
        Cd       : 0.00650973	(pressure: 0.00624654	viscous: 0.000263194)
        Cs       : 1.9865e-20	(pressure: 0	viscous: 1.9865e-20)
        Cl       : 0.00780703	(pressure: 0.00770325	viscous: 0.000103774)
        CmRoll       : -0.000195176	(pressure: -0.000192581	viscous: -2.59436e-06)
        CmPitch       : -0.00245966	(pressure: -0.00290087	viscous: 0.000441208)
        CmYaw       : 0.000162743	(pressure: 0.000156163	viscous: 6.57984e-06)
        Cd(f)    : 0.00305969
        Cd(r)    : 0.00345004
        Cs(f)    : 0.000162743
        Cs(r)    : -0.000162743
        Cl(f)    : 0.00144385
        Cl(r)    : 0.00636317
Time = 7

DILUPBiCG:  Solving for Ux, Initial residual = 0.097107, Final residual = 0.00955505, No Iterations 2
DILUPBiCG:  Solving for Uy, Initial residual = 0.112715, Final residual = 0.00464834, No Iterations 3
GAMG:  Solving for p, Initial residual = 0.165564, Final residual = 0.00706532, No Iterations 3
time step continuity errors : sum local = 0.00257944, global = 1.05283e-05, cumulative = -0.000465239
ExecutionTime = 0.07 s  ClockTime = 0 s

forceCoeffs forces execute:
    Coefficients
        Cd       : 0.00660355	(pressure: 0.00633778	viscous: 0.000265775)
        Cs       : 2.66525e-20	(pressure: 0	viscous: 2.66525e-20)
        Cl       : 0.00825752	(pressure: 0.00810632	viscous: 0.000151195)
        CmRoll       : -0.000206438	(pressure: -0.000202658	viscous: -3.77988e-06)
        CmPitch       : -0.00318752	(pressure: -0.00350446	viscous: 0.000316945)
        CmYaw       : 0.000165089	(pressure: 0.000158444	viscous: 6.64438e-06)
        Cd(f)    : 0.00309534
        Cd(r)    : 0.00350821
        Cs(f)    : 0.000165089
        Cs(r)    : -0.000165089
        Cl(f)    : 0.000941241
        Cl(r)    : 0.00731628
Time = 8

DILUPBiCG:  Solving for Ux, Initial residual = 0.0834627, Final residual = 0.00819424, No Iterations 2
DILUPBiCG:  Solving for Uy, Initial residual = 0.0993442, Final residual = 0.00906968, No Iterations 4
GAMG:  Solving for p, Initial residual = 0.111856, Final residual = 0.0103941, No Iterations 2
time step continuity errors : sum local = 0.0053115, global = -0.00025236, cumulative = -0.000717599
ExecutionTime = 0.08 s  ClockTime = 0 s

forceCoeffs forces execute:
    Coefficients
        Cd       : 0.00665911	(pressure: 0.00640455	viscous: 0.000254555)
        Cs       : 2.19154e-20	(pressure: 0	viscous: 2.19154e-20)
        Cl       : 0.00839846	(pressure: 0.00824126	viscous: 0.0001572)
        CmRoll       : -0.000209961	(pressure: -0.000206031	viscous: -3.93e-06)
        CmPitch       : -0.0033324	(pressure: -0.00358053	viscous: 0.00024813)
        CmYaw       : 0.000166478	(pressure: 0.000160114	viscous: 6.36388e-06)
        Cd(f)    : 0.00311959
        Cd(r)    : 0.00353951
        Cs(f)    : 0.000166478
        Cs(r)    : -0.000166478
        Cl(f)    : 0.000866827
        Cl(r)    : 0.00753163
Time = 9

DILUPBiCG:  Solving for Ux, Initial residual = 0.0743052, Final residual = 0.00273902, No Iterations 4
DILUPBiCG:  Solving for Uy, Initial residual = 0.0886816, Final residual = 0.00476385, No Iterations 5
GAMG:  Solving for p, Initial residual = 0.11216, Final residual = 0.0072824, No Iterations 3
time step continuity errors : sum local = 0.00379837, global = 2.11051e-05, cumulative = -0.000696494
ExecutionTime = 0.09 s  ClockTime = 0 s

forceCoeffs forces execute:
    Coefficients
        Cd       : 0.00698847	(pressure: 0.0067598	viscous: 0.000228676)
        Cs       : 2.52128e-20	(pressure: 0	viscous: 2.52128e-20)
        Cl       : 0.00845481	(pressure: 0.00834228	viscous: 0.000112526)
        CmRoll       : -0.00021137	(pressure: -0.000208557	viscous: -2.81316e-06)
        CmPitch       : -0.00270029	(pressure: -0.0029775	viscous: 0.000277217)
        CmYaw       : 0.000174712	(pressure: 0.000168995	viscous: 5.71689e-06)
        Cd(f)    : 0.00328287
        Cd(r)    : 0.00370561
        Cs(f)    : 0.000174712
        Cs(r)    : -0.000174712
        Cl(f)    : 0.00152712
        Cl(r)    : 0.00692769
Time = 10

DILUPBiCG:  Solving for Ux, Initial residual = 0.0679953, Final residual = 0.00309556, No Iterations 5
DILUPBiCG:  Solving for Uy, Initial residual = 0.0819371, Final residual = 0.00555133, No Iterations 6
GAMG:  Solving for p, Initial residual = 0.0920097, Final residual = 0.0050389, No Iterations 3
time step continuity errors : sum local = 0.00311352, global = 0.000141112, cumulative = -0.000555382
ExecutionTime = 0.1 s  ClockTime = 0 s

forceCoeffs forces execute:
    Coefficients
        Cd       : 0.0071391	(pressure: 0.00694601	viscous: 0.000193092)
        Cs       : 2.19236e-20	(pressure: 0	viscous: 2.19236e-20)
        Cl       : 0.00834471	(pressure: 0.00830229	viscous: 4.24299e-05)
        CmRoll       : -0.000208618	(pressure: -0.000207557	viscous: -1.06075e-06)
        CmPitch       : -0.00211038	(pressure: -0.00245974	viscous: 0.000349354)
        CmYaw       : 0.000178478	(pressure: 0.00017365	viscous: 4.8273e-06)
        Cd(f)    : 0.00336093
        Cd(r)    : 0.00377817
        Cs(f)    : 0.000178478
        Cs(r)    : -0.000178478
        Cl(f)    : 0.00206198
        Cl(r)    : 0.00628274
Time = 11

DILUPBiCG:  Solving for Ux, Initial residual = 0.0629438, Final residual = 0.00414098, No Iterations 5
DILUPBiCG:  Solving for Uy, Initial residual = 0.0772619, Final residual = 0.00565653, No Iterations 4
GAMG:  Solving for p, Initial residual = 0.0859126, Final residual = 0.00814835, No Iterations 2
time step continuity errors : sum local = 0.00519492, global = 0.000385694, cumulative = -0.000169688
ExecutionTime = 0.1 s  ClockTime = 0 s

forceCoeffs forces execute:
    Coefficients
        Cd       : 0.0069453	(pressure: 0.0068353	viscous: 0.00011)
        Cs       : 2.03551e-20	(pressure: 0	viscous: 2.03551e-20)
        Cl       : 0.0080799	(pressure: 0.00809832	viscous: -1.84248e-05)
        CmRoll       : -0.000201997	(pressure: -0.000202458	viscous: 4.60621e-07)
        CmPitch       : -0.00195044	(pressure: -0.00224413	viscous: 0.000293687)
        CmYaw       : 0.000173632	(pressure: 0.000170882	viscous: 2.75001e-06)
        Cd(f)    : 0.00327065
        Cd(r)    : 0.00367465
        Cs(f)    : 0.000173632
        Cs(r)    : -0.000173632
        Cl(f)    : 0.0020895
        Cl(r)    : 0.00599039
Time = 12

DILUPBiCG:  Solving for Ux, Initial residual = 0.0586646, Final residual = 0.00455489, No Iterations 5
DILUPBiCG:  Solving for Uy, Initial residual = 0.0731209, Final residual = 0.0065314, No Iterations 5
GAMG:  Solving for p, Initial residual = 0.0873326, Final residual = 0.0042589, No Iterations 3
time step continuity errors : sum local = 0.00277778, global = -1.88445e-05, cumulative = -0.000188532
ExecutionTime = 0.11 s  ClockTime = 0 s

forceCoeffs forces execute:
    Coefficients
        Cd       : 0.00663422	(pressure: 0.00660419	viscous: 3.00288e-05)
        Cs       : 1.59324e-20	(pressure: 0	viscous: 1.59324e-20)
        Cl       : 0.00762534	(pressure: 0.00769777	viscous: -7.24304e-05)
        CmRoll       : -0.000190634	(pressure: -0.000192444	viscous: 1.81076e-06)
        CmPitch       : -0.00163161	(pressure: -0.00186415	viscous: 0.000232542)
        CmYaw       : 0.000165855	(pressure: 0.000165105	viscous: 7.5072e-07)
        Cd(f)    : 0.00312647
        Cd(r)    : 0.00350774
        Cs(f)    : 0.000165855
        Cs(r)    : -0.000165855
        Cl(f)    : 0.00218106
        Cl(r)    : 0.00544428
Time = 13

DILUPBiCG:  Solving for Ux, Initial residual = 0.0541958, Final residual = 0.00222799, No Iterations 6
DILUPBiCG:  Solving for Uy, Initial residual = 0.0760646, Final residual = 0.000878847, No Iterations 7
GAMG:  Solving for p, Initial residual = 0.0979168, Final residual = 0.00443861, No Iterations 3
time step continuity errors : sum local = 0.00244477, global = 0.000122174, cumulative = -6.63584e-05
ExecutionTime = 0.12 s  ClockTime = 0 s

forceCoeffs forces execute:
    Coefficients
        Cd       : 0.00641468	(pressure: 0.00642144	viscous: -6.76374e-06)
        Cs       : 1.71996e-20	(pressure: 0	viscous: 1.71996e-20)
        Cl       : 0.00714961	(pressure: 0.00729808	viscous: -0.000148468)
        CmRoll       : -0.00017874	(pressure: -0.000182452	viscous: 3.71171e-06)
        CmPitch       : -0.00106099	(pressure: -0.00138647	viscous: 0.000325488)
        CmYaw       : 0.000160367	(pressure: 0.000160536	viscous: -1.69094e-07)
        Cd(f)    : 0.0030286
        Cd(r)    : 0.00338608
        Cs(f)    : 0.000160367
        Cs(r)    : -0.000160367
        Cl(f)    : 0.00251382
        Cl(r)    : 0.00463579
Time = 14

DILUPBiCG:  Solving for Ux, Initial residual = 0.0527002, Final residual = 0.00462888, No Iterations 6
DILUPBiCG:  Solving for Uy, Initial residual = 0.0776488, Final residual = 0.00491062, No Iterations 4
GAMG:  Solving for p, Initial residual = 0.0997753, Final residual = 0.00524556, No Iterations 3
time step continuity errors : sum local = 0.00286135, global = 0.000169022, cumulative = 0.000102664
ExecutionTime = 0.13 s  ClockTime = 0 s

forceCoeffs forces execute:
    Coefficients
        Cd       : 0.00629373	(pressure: 0.00630127	viscous: -7.54478e-06)
        Cs       : 1.63632e-20	(pressure: 0	viscous: 1.63632e-20)
        Cl       : 0.00670426	(pressure: 0.00693277	viscous: -0.000228512)
        CmRoll       : -0.000167606	(pressure: -0.000173319	viscous: 5.7128e-06)
        CmPitch       : -0.000338815	(pressure: -0.000849622	viscous: 0.000510806)
        CmYaw       : 0.000157343	(pressure: 0.000157532	viscous: -1.8862e-07)
        Cd(f)    : 0.00297926
        Cd(r)    : 0.00331447
        Cs(f)    : 0.000157343
        Cs(r)    : -0.000157343
        Cl(f)    : 0.00301331
        Cl(r)    : 0.00369094
Time = 15

DILUPBiCG:  Solving for Ux, Initial residual = 0.0517323, Final residual = 0.00273357, No Iterations 6
DILUPBiCG:  Solving for Uy, Initial residual = 0.0770597, Final residual = 0.00441782, No Iterations 4
GAMG:  Solving for p, Initial residual = 0.0974292, Final residual = 0.00589149, No Iterations 3
time step continuity errors : sum local = 0.00313266, global = 0.000172722, cumulative = 0.000275385
ExecutionTime = 0.14 s  ClockTime = 0 s

forceCoeffs forces execute:
    Coefficients
        Cd       : 0.00624152	(pressure: 0.00623435	viscous: 7.16814e-06)
        Cs       : 1.54425e-20	(pressure: 0	viscous: 1.54425e-20)
        Cl       : 0.00633962	(pressure: 0.00661967	viscous: -0.000280046)
        CmRoll       : -0.000158491	(pressure: -0.000165492	viscous: 7.00116e-06)
        CmPitch       : 0.000350797	(pressure: -0.000310036	viscous: 0.000660833)
        CmYaw       : 0.000156038	(pressure: 0.000155859	viscous: 1.79203e-07)
        Cd(f)    : 0.00296227
        Cd(r)    : 0.00327925
        Cs(f)    : 0.000156038
        Cs(r)    : -0.000156038
        Cl(f)    : 0.00352061
        Cl(r)    : 0.00281901
Time = 16

DILUPBiCG:  Solving for Ux, Initial residual = 0.0514654, Final residual = 0.00237578, No Iterations 6
DILUPBiCG:  Solving for Uy, Initial residual = 0.0732396, Final residual = 0.0034264, No Iterations 4
GAMG:  Solving for p, Initial residual = 0.10128, Final residual = 0.00592538, No Iterations 3
time step continuity errors : sum local = 0.00297974, global = 0.000146543, cumulative = 0.000421928
ExecutionTime = 0.15 s  ClockTime = 0 s

forceCoeffs forces execute:
    Coefficients
        Cd       : 0.00621955	(pressure: 0.00618888	viscous: 3.06736e-05)
        Cs       : 1.50548e-20	(pressure: 0	viscous: 1.50548e-20)
        Cl       : 0.00608894	(pressure: 0.00639431	viscous: -0.000305368)
        CmRoll       : -0.000152223	(pressure: -0.000159858	viscous: 7.6342e-06)
        CmPitch       : 0.000854556	(pressure: 8.31867e-05	viscous: 0.000771369)
        CmYaw       : 0.000155489	(pressure: 0.000154722	viscous: 7.6684e-07)
        Cd(f)    : 0.00295755
        Cd(r)    : 0.003262
        Cs(f)    : 0.000155489
        Cs(r)    : -0.000155489
        Cl(f)    : 0.00389902
        Cl(r)    : 0.00218991
Time = 17

DILUPBiCG:  Solving for Ux, Initial residual = 0.051463, Final residual = 0.000678302, No Iterations 7
DILUPBiCG:  Solving for Uy, Initial residual = 0.0694183, Final residual = 0.00379947, No Iterations 4
GAMG:  Solving for p, Initial residual = 0.108649, Final residual = 0.00641084, No Iterations 3
time step continuity errors : sum local = 0.0030361, global = 0.00017461, cumulative = 0.000596538
ExecutionTime = 0.15 s  ClockTime = 0 s

forceCoeffs forces execute:
    Coefficients
        Cd       : 0.00619453	(pressure: 0.00612922	viscous: 6.53063e-05)
        Cs       : 1.539e-20	(pressure: 0	viscous: 1.539e-20)
        Cl       : 0.00596643	(pressure: 0.00627409	viscous: -0.000307664)
        CmRoll       : -0.000149161	(pressure: -0.000156852	viscous: 7.69159e-06)
        CmPitch       : 0.00107392	(pressure: 0.000217372	viscous: 0.000856547)
        CmYaw       : 0.000154863	(pressure: 0.000153231	viscous: 1.63266e-06)
        Cd(f)    : 0.0029481
        Cd(r)    : 0.00324643
        Cs(f)    : 0.000154863
        Cs(r)    : -0.000154863
        Cl(f)    : 0.00405713
        Cl(r)    : 0.0019093
Time = 18

DILUPBiCG:  Solving for Ux, Initial residual = 0.0506251, Final residual = 0.00360305, No Iterations 4
DILUPBiCG:  Solving for Uy, Initial residual = 0.0682198, Final residual = 0.0046177, No Iterations 4
GAMG:  Solving for p, Initial residual = 0.109671, Final residual = 0.00668778, No Iterations 3
time step continuity errors : sum local = 0.00313836, global = 0.000125896, cumulative = 0.000722434
ExecutionTime = 0.16 s  ClockTime = 0 s

forceCoeffs forces execute:
    Coefficients
        Cd       : 0.00614484	(pressure: 0.00604316	viscous: 0.000101687)
        Cs       : 1.52875e-20	(pressure: 0	viscous: 1.52875e-20)
        Cl       : 0.00595934	(pressure: 0.00624527	viscous: -0.000285925)
        CmRoll       : -0.000148984	(pressure: -0.000156132	viscous: 7.14812e-06)
        CmPitch       : 0.000986541	(pressure: 9.62046e-05	viscous: 0.000890336)
        CmYaw       : 0.000153621	(pressure: 0.000151079	viscous: 2.54217e-06)
        Cd(f)    : 0.00292344
        Cd(r)    : 0.0032214
        Cs(f)    : 0.000153621
        Cs(r)    : -0.000153621
        Cl(f)    : 0.00396621
        Cl(r)    : 0.00199313
Time = 19

DILUPBiCG:  Solving for Ux, Initial residual = 0.0501569, Final residual = 0.00314254, No Iterations 4
DILUPBiCG:  Solving for Uy, Initial residual = 0.0673575, Final residual = 0.00570856, No Iterations 4
GAMG:  Solving for p, Initial residual = 0.113007, Final residual = 0.007246, No Iterations 3
time step continuity errors : sum local = 0.00337464, global = 9.28962e-05, cumulative = 0.00081533
ExecutionTime = 0.17 s  ClockTime = 0 s

forceCoeffs forces execute:
    Coefficients
        Cd       : 0.00606812	(pressure: 0.00593354	viscous: 0.000134585)
        Cs       : 1.51598e-20	(pressure: 0	viscous: 1.51598e-20)
        Cl       : 0.00605457	(pressure: 0.00630191	viscous: -0.000247332)
        CmRoll       : -0.000151364	(pressure: -0.000157548	viscous: 6.18329e-06)
        CmPitch       : 0.000617025	(pressure: -0.000260555	viscous: 0.00087758)
        CmYaw       : 0.000151703	(pressure: 0.000148338	viscous: 3.36462e-06)
        Cd(f)    : 0.0028827
        Cd(r)    : 0.00318543
        Cs(f)    : 0.000151703
        Cs(r)    : -0.000151703
        Cl(f)    : 0.00364431
        Cl(r)    : 0.00241026
Time = 20

DILUPBiCG:  Solving for Ux, Initial residual = 0.0499017, Final residual = 0.00342152, No Iterations 4
DILUPBiCG:  Solving for Uy, Initial residual = 0.0687039, Final residual = 0.00229693, No Iterations 5
GAMG:  Solving for p, Initial residual = 0.117791, Final residual = 0.00795912, No Iterations 3
time step continuity errors : sum local = 0.00365127, global = 0.000113379, cumulative = 0.000928709
ExecutionTime = 0.18 s  ClockTime = 0 s

forceCoeffs forces execute:
    Coefficients
        Cd       : 0.00596523	(pressure: 0.00579897	viscous: 0.00016626)
        Cs       : 1.51283e-20	(pressure: 0	viscous: 1.51283e-20)
        Cl       : 0.00623928	(pressure: 0.00643601	viscous: -0.000196731)
        CmRoll       : -0.000155982	(pressure: -0.0001609	viscous: 4.91827e-06)
        CmPitch       : -4.70427e-06	(pressure: -0.000838495	viscous: 0.000833791)
        CmYaw       : 0.000149131	(pressure: 0.000144974	viscous: 4.15649e-06)
        Cd(f)    : 0.00282663
        Cd(r)    : 0.0031386
        Cs(f)    : 0.000149131
        Cs(r)    : -0.000149131
        Cl(f)    : 0.00311493
        Cl(r)    : 0.00312434
Time = 21

DILUPBiCG:  Solving for Ux, Initial residual = 0.0494217, Final residual = 0.00351167, No Iterations 5
DILUPBiCG:  Solving for Uy, Initial residual = 0.0716969, Final residual = 0.00652147, No Iterations 4
GAMG:  Solving for p, Initial residual = 0.122497, Final residual = 0.00845416, No Iterations 3
time step continuity errors : sum local = 0.00387448, global = 5.854e-05, cumulative = 0.000987249
ExecutionTime = 0.18 s  ClockTime = 0 s

forceCoeffs forces execute:
    Coefficients
        Cd       : 0.0058762	(pressure: 0.00568537	viscous: 0.000190831)
        Cs       : 1.50911e-20	(pressure: 0	viscous: 1.50911e-20)
        Cl       : 0.00647985	(pressure: 0.00661563	viscous: -0.000135782)
        CmRoll       : -0.000161996	(pressure: -0.000165391	viscous: 3.39455e-06)
        CmPitch       : -0.000720963	(pressure: -0.00146824	viscous: 0.00074728)
        CmYaw       : 0.000146905	(pressure: 0.000142134	viscous: 4.77078e-06)
        Cd(f)    : 0.0027761
        Cd(r)    : 0.0031001
        Cs(f)    : 0.000146905
        Cs(r)    : -0.000146905
        Cl(f)    : 0.00251896
        Cl(r)    : 0.00396089
Time = 22

DILUPBiCG:  Solving for Ux, Initial residual = 0.0494388, Final residual = 0.001477, No Iterations 5
DILUPBiCG:  Solving for Uy, Initial residual = 0.0741104, Final residual = 0.00500606, No Iterations 4
GAMG:  Solving for p, Initial residual = 0.127182, Final residual = 0.00904614, No Iterations 3
time step continuity errors : sum local = 0.00415504, global = -8.00552e-05, cumulative = 0.000907194
ExecutionTime = 0.2 s  ClockTime = 0 s

forceCoeffs forces execute:
    Coefficients
        Cd       : 0.00581268	(pressure: 0.00560709	viscous: 0.000205588)
        Cs       : 1.49796e-20	(pressure: 0	viscous: 1.49796e-20)
        Cl       : 0.00670853	(pressure: 0.00677508	viscous: -6.65482e-05)
        CmRoll       : -0.000167713	(pressure: -0.000169377	viscous: 1.66371e-06)
        CmPitch       : -0.0013622	(pressure: -0.00197726	viscous: 0.000615063)
        CmYaw       : 0.000145317	(pressure: 0.000140177	viscous: 5.13971e-06)
        Cd(f)    : 0.00273863
        Cd(r)    : 0.00307405
        Cs(f)    : 0.000145317
        Cs(r)    : -0.000145317
        Cl(f)    : 0.00199206
        Cl(r)    : 0.00471646
Time = 23

DILUPBiCG:  Solving for Ux, Initial residual = 0.0498267, Final residual = 0.00202791, No Iterations 4
DILUPBiCG:  Solving for Uy, Initial residual = 0.0741141, Final residual = 0.00266684, No Iterations 4
GAMG:  Solving for p, Initial residual = 0.132109, Final residual = 0.00885021, No Iterations 3
time step continuity errors : sum local = 0.00405114, global = -0.000112146, cumulative = 0.000795048
ExecutionTime = 0.2 s  ClockTime = 0 s

forceCoeffs forces execute:
    Coefficients
        Cd       : 0.00581747	(pressure: 0.00561836	viscous: 0.000199104)
        Cs       : 1.56224e-20	(pressure: 0	viscous: 1.56224e-20)
        Cl       : 0.00683729	(pressure: 0.00685685	viscous: -1.95661e-05)
        CmRoll       : -0.000170932	(pressure: -0.000171421	viscous: 4.89153e-07)
        CmPitch       : -0.00163665	(pressure: -0.00212287	viscous: 0.000486222)
        CmYaw       : 0.000145437	(pressure: 0.000140459	viscous: 4.97759e-06)
        Cd(f)    : 0.0027378
        Cd(r)    : 0.00307967
        Cs(f)    : 0.000145437
        Cs(r)    : -0.000145437
        Cl(f)    : 0.00178199
        Cl(r)    : 0.00505529
Time = 24

DILUPBiCG:  Solving for Ux, Initial residual = 0.0501261, Final residual = 0.000706833, No Iterations 5
DILUPBiCG:  Solving for Uy, Initial residual = 0.0732995, Final residual = 0.00149115, No Iterations 6
GAMG:  Solving for p, Initial residual = 0.136481, Final residual = 0.00912631, No Iterations 3
time step continuity errors : sum local = 0.00425501, global = -0.000110543, cumulative = 0.000684505
ExecutionTime = 0.21 s  ClockTime = 0 s

forceCoeffs forces execute:
    Coefficients
        Cd       : 0.00590879	(pressure: 0.00572085	viscous: 0.000187934)
        Cs       : 1.59722e-20	(pressure: 0	viscous: 1.59722e-20)
        Cl       : 0.00681796	(pressure: 0.00684514	viscous: -2.71841e-05)
        CmRoll       : -0.000170449	(pressure: -0.000171129	viscous: 6.79603e-07)
        CmPitch       : -0.00139793	(pressure: -0.00187445	viscous: 0.000476528)
        CmYaw       : 0.00014772	(pressure: 0.000143021	viscous: 4.69835e-06)
        Cd(f)    : 0.00278394
        Cd(r)    : 0.00312484
        Cs(f)    : 0.00014772
        Cs(r)    : -0.00014772
        Cl(f)    : 0.00201105
        Cl(r)    : 0.0048069
Time = 25

DILUPBiCG:  Solving for Ux, Initial residual = 0.0508189, Final residual = 0.00125696, No Iterations 4
DILUPBiCG:  Solving for Uy, Initial residual = 0.0743718, Final residual = 0.00112892, No Iterations 6
GAMG:  Solving for p, Initial residual = 0.137598, Final residual = 0.00958906, No Iterations 3
time step continuity errors : sum local = 0.00472307, global = -0.000134054, cumulative = 0.000550451
ExecutionTime = 0.22 s  ClockTime = 0 s

forceCoeffs forces execute:
    Coefficients
        Cd       : 0.00602973	(pressure: 0.0058511	viscous: 0.000178632)
        Cs       : 1.6344e-20	(pressure: 0	viscous: 1.6344e-20)
        Cl       : 0.00667578	(pressure: 0.00674384	viscous: -6.80683e-05)
        CmRoll       : -0.000166894	(pressure: -0.000168596	viscous: 1.70171e-06)
        CmPitch       : -0.00082987	(pressure: -0.00138068	viscous: 0.000550815)
        CmYaw       : 0.000150743	(pressure: 0.000146277	viscous: 4.4658e-06)
        Cd(f)    : 0.00284797
        Cd(r)    : 0.00318176
        Cs(f)    : 0.000150743
        Cs(r)    : -0.000150743
        Cl(f)    : 0.00250802
        Cl(r)    : 0.00416776
Time = 26

DILUPBiCG:  Solving for Ux, Initial residual = 0.0518832, Final residual = 0.00197195, No Iterations 4
DILUPBiCG:  Solving for Uy, Initial residual = 0.0762732, Final residual = 0.006607, No Iterations 3
GAMG:  Solving for p, Initial residual = 0.133022, Final residual = 0.00881433, No Iterations 3
time step continuity errors : sum local = 0.00476131, global = -7.9939e-05, cumulative = 0.000470512
ExecutionTime = 0.22 s  ClockTime = 0 s

forceCoeffs forces execute:
    Coefficients
        Cd       : 0.00613658	(pressure: 0.00597495	viscous: 0.00016163)
        Cs       : 1.62972e-20	(pressure: 0	viscous: 1.62972e-20)
        Cl       : 0.00648354	(pressure: 0.0066039	viscous: -0.000120358)
        CmRoll       : -0.000162088	(pressure: -0.000165097	viscous: 3.00896e-06)
        CmPitch       : -0.000184832	(pressure: -0.000823063	viscous: 0.000638231)
        CmYaw       : 0.000153414	(pressure: 0.000149374	viscous: 4.04076e-06)
        Cd(f)    : 0.0029062
        Cd(r)    : 0.00323038
        Cs(f)    : 0.000153414
        Cs(r)    : -0.000153414
        Cl(f)    : 0.00305694
        Cl(r)    : 0.0034266
Time = 27

DILUPBiCG:  Solving for Ux, Initial residual = 0.0539835, Final residual = 0.00320257, No Iterations 4
DILUPBiCG:  Solving for Uy, Initial residual = 0.0822533, Final residual = 0.00548156, No Iterations 3
GAMG:  Solving for p, Initial residual = 0.132171, Final residual = 0.00714795, No Iterations 3
time step continuity errors : sum local = 0.00411707, global = -0.000171631, cumulative = 0.000298881
ExecutionTime = 0.23 s  ClockTime = 0 s

forceCoeffs forces execute:
    Coefficients
        Cd       : 0.00620849	(pressure: 0.00606859	viscous: 0.0001399)
        Cs       : 1.56953e-20	(pressure: 0	viscous: 1.56953e-20)
        Cl       : 0.00624243	(pressure: 0.00642319	viscous: -0.000180755)
        CmRoll       : -0.000156061	(pressure: -0.00016058	viscous: 4.51888e-06)
        CmPitch       : 0.00049425	(pressure: -0.000243444	viscous: 0.000737695)
        CmYaw       : 0.000155212	(pressure: 0.000151715	viscous: 3.49751e-06)
        Cd(f)    : 0.00294818
        Cd(r)    : 0.0032603
        Cs(f)    : 0.000155212
        Cs(r)    : -0.000155212
        Cl(f)    : 0.00361547
        Cl(r)    : 0.00262697
Time = 28

DILUPBiCG:  Solving for Ux, Initial residual = 0.0579874, Final residual = 0.00179284, No Iterations 4
DILUPBiCG:  Solving for Uy, Initial residual = 0.0857872, Final residual = 0.00433095, No Iterations 3
GAMG:  Solving for p, Initial residual = 0.132889, Final residual = 0.00706255, No Iterations 3
time step continuity errors : sum local = 0.00414892, global = -0.000129093, cumulative = 0.000169788
ExecutionTime = 0.24 s  ClockTime = 0 s

forceCoeffs forces execute:
    Coefficients
        Cd       : 0.00629285	(pressure: 0.00615596	viscous: 0.000136887)
        Cs       : 1.63866e-20	(pressure: 0	viscous: 1.63866e-20)
        Cl       : 0.00600765	(pressure: 0.00626438	viscous: -0.000256729)
        CmRoll       : -0.000150191	(pressure: -0.00015661	viscous: 6.41822e-06)
        CmPitch       : 0.00119238	(pressure: 0.000276849	viscous: 0.000915536)
        CmYaw       : 0.000157321	(pressure: 0.000153899	viscous: 3.42218e-06)
        Cd(f)    : 0.00299623
        Cd(r)    : 0.00329662
        Cs(f)    : 0.000157321
        Cs(r)    : -0.000157321
        Cl(f)    : 0.00419621
        Cl(r)    : 0.00181144
Time = 29

DILUPBiCG:  Solving for Ux, Initial residual = 0.0618212, Final residual = 0.00120424, No Iterations 4
DILUPBiCG:  Solving for Uy, Initial residual = 0.0869606, Final residual = 0.00586922, No Iterations 3
GAMG:  Solving for p, Initial residual = 0.124439, Final residual = 0.00725142, No Iterations 3
time step continuity errors : sum local = 0.00436159, global = -7.15477e-05, cumulative = 9.82404e-05
ExecutionTime = 0.25 s  ClockTime = 0 s

forceCoeffs forces execute:
    Coefficients
        Cd       : 0.00641863	(pressure: 0.00627989	viscous: 0.000138734)
        Cs       : 1.59222e-20	(pressure: 0	viscous: 1.59222e-20)
        Cl       : 0.00588503	(pressure: 0.00618426	viscous: -0.000299231)
        CmRoll       : -0.000147126	(pressure: -0.000154607	viscous: 7.48077e-06)
        CmPitch       : 0.00173317	(pressure: 0.000710312	viscous: 0.00102286)
        CmYaw       : 0.000160466	(pressure: 0.000156997	viscous: 3.46835e-06)
        Cd(f)    : 0.00306219
        Cd(r)    : 0.00335644
        Cs(f)    : 0.000160466
        Cs(r)    : -0.000160466
        Cl(f)    : 0.00467569
        Cl(r)    : 0.00120934
Time = 30

DILUPBiCG:  Solving for Ux, Initial residual = 0.0644526, Final residual = 0.00116452, No Iterations 4
DILUPBiCG:  Solving for Uy, Initial residual = 0.0869019, Final residual = 0.00119253, No Iterations 6
GAMG:  Solving for p, Initial residual = 0.121809, Final residual = 0.00742725, No Iterations 3
time step continuity errors : sum local = 0.00440902, global = -3.52334e-05, cumulative = 6.3007e-05
ExecutionTime = 0.26 s  ClockTime = 0 s

forceCoeffs forces execute:
    Coefficients
        Cd       : 0.00655405	(pressure: 0.00640271	viscous: 0.000151344)
        Cs       : 1.59959e-20	(pressure: 0	viscous: 1.59959e-20)
        Cl       : 0.00593263	(pressure: 0.00623541	viscous: -0.000302771)
        CmRoll       : -0.000148316	(pressure: -0.000155885	viscous: 7.56929e-06)
        CmPitch       : 0.00192411	(pressure: 0.000860366	viscous: 0.00106375)
        CmYaw       : 0.000163851	(pressure: 0.000160068	viscous: 3.78361e-06)
        Cd(f)    : 0.00312871
        Cd(r)    : 0.00342534
        Cs(f)    : 0.000163851
        Cs(r)    : -0.000163851
        Cl(f)    : 0.00489043
        Cl(r)    : 0.0010422
Time = 31

DILUPBiCG:  Solving for Ux, Initial residual = 0.0656902, Final residual = 0.00566579, No Iterations 3
DILUPBiCG:  Solving for Uy, Initial residual = 0.0880437, Final residual = 0.00188167, No Iterations 6
GAMG:  Solving for p, Initial residual = 0.124172, Final residual = 0.00798199, No Iterations 3
time step continuity errors : sum local = 0.00477641, global = 0.000184404, cumulative = 0.000247411
ExecutionTime = 0.26 s  ClockTime = 0 s

forceCoeffs forces execute:
    Coefficients
        Cd       : 0.00664929	(pressure: 0.00646985	viscous: 0.000179439)
        Cs       : 1.5699e-20	(pressure: 0	viscous: 1.5699e-20)
        Cl       : 0.00616714	(pressure: 0.00644097	viscous: -0.000273835)
        CmRoll       : -0.000154178	(pressure: -0.000161024	viscous: 6.84589e-06)
        CmPitch       : 0.00162588	(pressure: 0.000561294	viscous: 0.00106459)
        CmYaw       : 0.000166232	(pressure: 0.000161746	viscous: 4.48597e-06)
        Cd(f)    : 0.00317047
        Cd(r)    : 0.00347883
        Cs(f)    : 0.000166232
        Cs(r)    : -0.000166232
        Cl(f)    : 0.00470945
        Cl(r)    : 0.00145769
Time = 32

DILUPBiCG:  Solving for Ux, Initial residual = 0.0682295, Final residual = 0.00494738, No Iterations 5
DILUPBiCG:  Solving for Uy, Initial residual = 0.0917353, Final residual = 0.00389589, No Iterations 4
GAMG:  Solving for p, Initial residual = 0.127944, Final residual = 0.00960526, No Iterations 3
time step continuity errors : sum local = 0.00546732, global = 0.000256449, cumulative = 0.000503859
ExecutionTime = 0.27 s  ClockTime = 0 s

forceCoeffs forces execute:
    Coefficients
        Cd       : 0.00664983	(pressure: 0.00643714	viscous: 0.000212695)
        Cs       : 1.55936e-20	(pressure: 0	viscous: 1.55936e-20)
        Cl       : 0.00658434	(pressure: 0.00680028	viscous: -0.000215947)
        CmRoll       : -0.000164608	(pressure: -0.000170007	viscous: 5.39868e-06)
        CmPitch       : 0.000722911	(pressure: -0.000284171	viscous: 0.00100708)
        CmYaw       : 0.000166246	(pressure: 0.000160928	viscous: 5.31737e-06)
        Cd(f)    : 0.00316031
        Cd(r)    : 0.00348952
        Cs(f)    : 0.000166246
        Cs(r)    : -0.000166246
        Cl(f)    : 0.00401508
        Cl(r)    : 0.00256926
Time = 33

DILUPBiCG:  Solving for Ux, Initial residual = 0.0709498, Final residual = 0.00328288, No Iterations 5
DILUPBiCG:  Solving for Uy, Initial residual = 0.10132, Final residual = 0.00509406, No Iterations 4
GAMG:  Solving for p, Initial residual = 0.127295, Final residual = 0.0086162, No Iterations 3
time step continuity errors : sum local = 0.00478399, global = 0.000143764, cumulative = 0.000647623
ExecutionTime = 0.29 s  ClockTime = 0 s

forceCoeffs forces execute:
    Coefficients
        Cd       : 0.00659817	(pressure: 0.00636855	viscous: 0.00022962)
        Cs       : 1.56946e-20	(pressure: 0	viscous: 1.56946e-20)
        Cl       : 0.00712336	(pressure: 0.00726334	viscous: -0.000139986)
        CmRoll       : -0.000178084	(pressure: -0.000181584	viscous: 3.49966e-06)
        CmPitch       : -0.000561977	(pressure: -0.00142882	viscous: 0.000866841)
        CmYaw       : 0.000164954	(pressure: 0.000159214	viscous: 5.7405e-06)
        Cd(f)    : 0.003121
        Cd(r)    : 0.00347717
        Cs(f)    : 0.000164954
        Cs(r)    : -0.000164954
        Cl(f)    : 0.0029997
        Cl(r)    : 0.00412366
Time = 34

DILUPBiCG:  Solving for Ux, Initial residual = 0.0738537, Final residual = 0.00568197, No Iterations 4
DILUPBiCG:  Solving for Uy, Initial residual = 0.106892, Final residual = 0.00700685, No Iterations 4
GAMG:  Solving for p, Initial residual = 0.123866, Final residual = 0.00762225, No Iterations 3
time step continuity errors : sum local = 0.00432682, global = -5.84314e-05, cumulative = 0.000589192
ExecutionTime = 0.29 s  ClockTime = 0 s

forceCoeffs forces execute:
    Coefficients
        Cd       : 0.0064863	(pressure: 0.00626542	viscous: 0.000220885)
        Cs       : 1.56824e-20	(pressure: 0	viscous: 1.56824e-20)
        Cl       : 0.00759533	(pressure: 0.00764699	viscous: -5.16547e-05)
        CmRoll       : -0.000189883	(pressure: -0.000191175	viscous: 1.29137e-06)
        CmPitch       : -0.00184437	(pressure: -0.00247655	viscous: 0.000632178)
        CmYaw       : 0.000162158	(pressure: 0.000156635	viscous: 5.52213e-06)
        Cd(f)    : 0.00305327
        Cd(r)    : 0.00343303
        Cs(f)    : 0.000162158
        Cs(r)    : -0.000162158
        Cl(f)    : 0.0019533
        Cl(r)    : 0.00564203
Time = 35

DILUPBiCG:  Solving for Ux, Initial residual = 0.0765853, Final residual = 0.00313614, No Iterations 4
DILUPBiCG:  Solving for Uy, Initial residual = 0.105797, Final residual = 0.0049307, No Iterations 4
GAMG:  Solving for p, Initial residual = 0.123939, Final residual = 0.00856643, No Iterations 3
time step continuity errors : sum local = 0.00476017, global = -0.000144823, cumulative = 0.000444369
ExecutionTime = 0.3 s  ClockTime = 0 s

forceCoeffs forces execute:
    Coefficients
        Cd       : 0.00640832	(pressure: 0.00621312	viscous: 0.000195198)
        Cs       : 1.56209e-20	(pressure: 0	viscous: 1.56209e-20)
        Cl       : 0.00787161	(pressure: 0.00784243	viscous: 2.91796e-05)
        CmRoll       : -0.00019679	(pressure: -0.000196061	viscous: -7.29489e-07)
        CmPitch       : -0.00263014	(pressure: -0.00300343	viscous: 0.000373284)
        CmYaw       : 0.000160208	(pressure: 0.000155328	viscous: 4.87995e-06)
        Cd(f)    : 0.00300737
        Cd(r)    : 0.00340095
        Cs(f)    : 0.000160208
        Cs(r)    : -0.000160208
        Cl(f)    : 0.00130566
        Cl(r)    : 0.00656595
Time = 36

DILUPBiCG:  Solving for Ux, Initial residual = 0.0772959, Final residual = 0.00036669, No Iterations 6
DILUPBiCG:  Solving for Uy, Initial residual = 0.110014, Final residual = 0.00979529, No Iterations 5
GAMG:  Solving for p, Initial residual = 0.109942, Final residual = 0.00837978, No Iterations 3
time step continuity errors : sum local = 0.00449214, global = -0.000172909, cumulative = 0.00027146
ExecutionTime = 0.31 s  ClockTime = 0 s

forceCoeffs forces execute:
    Coefficients
        Cd       : 0.00647111	(pressure: 0.00629468	viscous: 0.000176427)
        Cs       : 1.71237e-20	(pressure: 0	viscous: 1.71237e-20)
        Cl       : 0.007823	(pressure: 0.00779978	viscous: 2.32249e-05)
        CmRoll       : -0.000195575	(pressure: -0.000194994	viscous: -5.80622e-07)
        CmPitch       : -0.00239304	(pressure: -0.002729	viscous: 0.000335958)
        CmYaw       : 0.000161778	(pressure: 0.000157367	viscous: 4.41067e-06)
        Cd(f)    : 0.00303998
        Cd(r)    : 0.00343113
        Cs(f)    : 0.000161778
        Cs(r)    : -0.000161778
        Cl(f)    : 0.00151846
        Cl(r)    : 0.00630454
Time = 37

DILUPBiCG:  Solving for Ux, Initial residual = 0.0772457, Final residual = 0.0067616, No Iterations 4
DILUPBiCG:  Solving for Uy, Initial residual = 0.122769, Final residual = 0.00853422, No Iterations 4
GAMG:  Solving for p, Initial residual = 0.0919139, Final residual = 0.00684076, No Iterations 3
time step continuity errors : sum local = 0.00392315, global = -0.000316023, cumulative = -4.45631e-05
ExecutionTime = 0.31 s  ClockTime = 0 s

forceCoeffs forces execute:
    Coefficients
        Cd       : 0.00664039	(pressure: 0.00647833	viscous: 0.000162056)
        Cs       : 1.61569e-20	(pressure: 0	viscous: 1.61569e-20)
        Cl       : 0.00751939	(pressure: 0.00756771	viscous: -4.83136e-05)
        CmRoll       : -0.000187985	(pressure: -0.000189193	viscous: 1.20784e-06)
        CmPitch       : -0.00136816	(pressure: -0.00183466	viscous: 0.000466501)
        CmYaw       : 0.00016601	(pressure: 0.000161958	viscous: 4.05141e-06)
        Cd(f)    : 0.00313221
        Cd(r)    : 0.00350818
        Cs(f)    : 0.00016601
        Cs(r)    : -0.00016601
        Cl(f)    : 0.00239153
        Cl(r)    : 0.00512786
Time = 38

DILUPBiCG:  Solving for Ux, Initial residual = 0.0790321, Final residual = 0.00480936, No Iterations 5
DILUPBiCG:  Solving for Uy, Initial residual = 0.130583, Final residual = 0.0105197, No Iterations 3
GAMG:  Solving for p, Initial residual = 0.0900734, Final residual = 0.00645388, No Iterations 3
time step continuity errors : sum local = 0.00380196, global = -0.000131256, cumulative = -0.000175819
ExecutionTime = 0.32 s  ClockTime = 0 s

forceCoeffs forces execute:
    Coefficients
        Cd       : 0.00675979	(pressure: 0.00663975	viscous: 0.000120042)
        Cs       : 1.59094e-20	(pressure: 0	viscous: 1.59094e-20)
        Cl       : 0.00713453	(pressure: 0.00726822	viscous: -0.000133683)
        CmRoll       : -0.000178363	(pressure: -0.000181705	viscous: 3.34207e-06)
        CmPitch       : -0.000277012	(pressure: -0.000852538	viscous: 0.000575527)
        CmYaw       : 0.000168995	(pressure: 0.000165994	viscous: 3.00105e-06)
        Cd(f)    : 0.00320153
        Cd(r)    : 0.00355826
        Cs(f)    : 0.000168995
        Cs(r)    : -0.000168995
        Cl(f)    : 0.00329026
        Cl(r)    : 0.00384428
Time = 39

DILUPBiCG:  Solving for Ux, Initial residual = 0.0790351, Final residual = 0.00764218, No Iterations 4
DILUPBiCG:  Solving for Uy, Initial residual = 0.130425, Final residual = 0.00920639, No Iterations 3
GAMG:  Solving for p, Initial residual = 0.0919011, Final residual = 0.00658863, No Iterations 3
time step continuity errors : sum local = 0.00392255, global = -5.73161e-05, cumulative = -0.000233135
ExecutionTime = 0.33 s  ClockTime = 0 s

forceCoeffs forces execute:
    Coefficients
        Cd       : 0.0068228	(pressure: 0.00673599	viscous: 8.68121e-05)
        Cs       : 1.57706e-20	(pressure: 0	viscous: 1.57706e-20)
        Cl       : 0.00674387	(pressure: 0.00698053	viscous: -0.000236654)
        CmRoll       : -0.000168597	(pressure: -0.000174513	viscous: 5.91634e-06)
        CmPitch       : 0.000718005	(pressure: -3.32892e-05	viscous: 0.000751295)
        CmYaw       : 0.00017057	(pressure: 0.0001684	viscous: 2.1703e-06)
        Cd(f)    : 0.00324281
        Cd(r)    : 0.00358
        Cs(f)    : 0.00017057
        Cs(r)    : -0.00017057
        Cl(f)    : 0.00408994
        Cl(r)    : 0.00265393
Time = 40

DILUPBiCG:  Solving for Ux, Initial residual = 0.0783312, Final residual = 0.00655901, No Iterations 4
DILUPBiCG:  Solving for Uy, Initial residual = 0.125977, Final residual = 0.00934558, No Iterations 5
GAMG:  Solving for p, Initial residual = 0.0923453, Final residual = 0.00625474, No Iterations 3
time step continuity errors : sum local = 0.00368547, global = -4.1849e-05, cumulative = -0.000274984
ExecutionTime = 0.33 s  ClockTime = 0 s

forceCoeffs forces execute:
    Coefficients
        Cd       : 0.00691003	(pressure: 0.00682675	viscous: 8.3283e-05)
        Cs       : 1.58028e-20	(pressure: 0	viscous: 1.58028e-20)
        Cl       : 0.00644887	(pressure: 0.0067693	viscous: -0.000320424)
        CmRoll       : -0.000161222	(pressure: -0.000169232	viscous: 8.01061e-06)
        CmPitch       : 0.00155735	(pressure: 0.000612916	viscous: 0.000944432)
        CmYaw       : 0.000172751	(pressure: 0.000170669	viscous: 2.08208e-06)
        Cd(f)    : 0.0032938
        Cd(r)    : 0.00361624
        Cs(f)    : 0.000172751
        Cs(r)    : -0.000172751
        Cl(f)    : 0.00478178
        Cl(r)    : 0.00166709
Time = 41

DILUPBiCG:  Solving for Ux, Initial residual = 0.0764833, Final residual = 0.00493632, No Iterations 4
DILUPBiCG:  Solving for Uy, Initial residual = 0.121351, Final residual = 0.00670868, No Iterations 5
GAMG:  Solving for p, Initial residual = 0.0877686, Final residual = 0.00533845, No Iterations 3
time step continuity errors : sum local = 0.00311983, global = -9.70312e-05, cumulative = -0.000372015
ExecutionTime = 0.34 s  ClockTime = 0 s

forceCoeffs forces execute:
    Coefficients
        Cd       : 0.00699115	(pressure: 0.00689281	viscous: 9.83448e-05)
        Cs       : 1.60054e-20	(pressure: 0	viscous: 1.60054e-20)
        Cl       : 0.00638505	(pressure: 0.00672337	viscous: -0.000338317)
        CmRoll       : -0.000159626	(pressure: -0.000168084	viscous: 8.45792e-06)
        CmPitch       : 0.00187432	(pressure: 0.000850131	viscous: 0.00102419)
        CmYaw       : 0.000174779	(pressure: 0.00017232	viscous: 2.45862e-06)
        Cd(f)    : 0.00333595
        Cd(r)    : 0.0036552
        Cs(f)    : 0.000174779
        Cs(r)    : -0.000174779
        Cl(f)    : 0.00506685
        Cl(r)    : 0.00131821
Time = 42

DILUPBiCG:  Solving for Ux, Initial residual = 0.0747031, Final residual = 0.00303838, No Iterations 4
DILUPBiCG:  Solving for Uy, Initial residual = 0.120255, Final residual = 0.00201154, No Iterations 7
GAMG:  Solving for p, Initial residual = 0.0811925, Final residual = 0.00584047, No Iterations 3
time step continuity errors : sum local = 0.00338697, global = -0.000102548, cumulative = -0.000474564
ExecutionTime = 0.35 s  ClockTime = 0 s

forceCoeffs forces execute:
    Coefficients
        Cd       : 0.00701892	(pressure: 0.00688336	viscous: 0.000135553)
        Cs       : 1.61712e-20	(pressure: 0	viscous: 1.61712e-20)
        Cl       : 0.00656482	(pressure: 0.00687129	viscous: -0.000306475)
        CmRoll       : -0.00016412	(pressure: -0.000171782	viscous: 7.66187e-06)
        CmPitch       : 0.00154655	(pressure: 0.000508148	viscous: 0.00103841)
        CmYaw       : 0.000175473	(pressure: 0.000172084	viscous: 3.38882e-06)
        Cd(f)    : 0.00334534
        Cd(r)    : 0.00367358
        Cs(f)    : 0.000175473
        Cs(r)    : -0.000175473
        Cl(f)    : 0.00482896
        Cl(r)    : 0.00173585
Time = 43

DILUPBiCG:  Solving for Ux, Initial residual = 0.0731686, Final residual = 0.00512909, No Iterations 4
DILUPBiCG:  Solving for Uy, Initial residual = 0.120092, Final residual = 0.0113178, No Iterations 6
GAMG:  Solving for p, Initial residual = 0.0789223, Final residual = 0.00623225, No Iterations 3
time step continuity errors : sum local = 0.00364943, global = -3.16268e-06, cumulative = -0.000477726
ExecutionTime = 0.36 s  ClockTime = 0 s

forceCoeffs forces execute:
    Coefficients
        Cd       : 0.00696511	(pressure: 0.00678755	viscous: 0.000177562)
        Cs       : 1.65875e-20	(pressure: 0	viscous: 1.65875e-20)
        Cl       : 0.00696829	(pressure: 0.007206	viscous: -0.000237707)
        CmRoll       : -0.000174207	(pressure: -0.00018015	viscous: 5.94268e-06)
        CmPitch       : 0.00055616	(pressure: -0.000419606	viscous: 0.000975766)
        CmYaw       : 0.000174128	(pressure: 0.000169689	viscous: 4.43905e-06)
        Cd(f)    : 0.00330835
        Cd(r)    : 0.00365676
        Cs(f)    : 0.000174128
        Cs(r)    : -0.000174128
        Cl(f)    : 0.00404031
        Cl(r)    : 0.00292799
Time = 44

DILUPBiCG:  Solving for Ux, Initial residual = 0.0735327, Final residual = 0.0041187, No Iterations 5
DILUPBiCG:  Solving for Uy, Initial residual = 0.115302, Final residual = 0.00693816, No Iterations 4
GAMG:  Solving for p, Initial residual = 0.0884335, Final residual = 0.00634423, No Iterations 3
time step continuity errors : sum local = 0.00374857, global = 0.000107533, cumulative = -0.000370193
ExecutionTime = 0.36 s  ClockTime = 0 s

forceCoeffs forces execute:
    Coefficients
        Cd       : 0.00685301	(pressure: 0.00664724	viscous: 0.000205764)
        Cs       : 1.69784e-20	(pressure: 0	viscous: 1.69784e-20)
        Cl       : 0.00748363	(pressure: 0.00763259	viscous: -0.00014896)
        CmRoll       : -0.000187091	(pressure: -0.000190815	viscous: 3.72399e-06)
        CmPitch       : -0.000806887	(pressure: -0.00163844	viscous: 0.000831557)
        CmYaw       : 0.000171325	(pressure: 0.000166181	viscous: 5.1441e-06)
        Cd(f)    : 0.00323941
        Cd(r)    : 0.00361359
        Cs(f)    : 0.000171325
        Cs(r)    : -0.000171325
        Cl(f)    : 0.00293493
        Cl(r)    : 0.0045487
Time = 45

DILUPBiCG:  Solving for Ux, Initial residual = 0.0719177, Final residual = 0.00596252, No Iterations 4
DILUPBiCG:  Solving for Uy, Initial residual = 0.11487, Final residual = 0.000513909, No Iterations 7
GAMG:  Solving for p, Initial residual = 0.0886353, Final residual = 0.00640208, No Iterations 3
time step continuity errors : sum local = 0.00374047, global = 0.000138276, cumulative = -0.000231917
ExecutionTime = 0.37 s  ClockTime = 0 s

forceCoeffs forces execute:
    Coefficients
        Cd       : 0.00671502	(pressure: 0.0065095	viscous: 0.000205515)
        Cs       : 1.70562e-20	(pressure: 0	viscous: 1.70562e-20)
        Cl       : 0.00795032	(pressure: 0.00800512	viscous: -5.47964e-05)
        CmRoll       : -0.000198758	(pressure: -0.000200128	viscous: 1.36991e-06)
        CmPitch       : -0.00212809	(pressure: -0.00273215	viscous: 0.00060406)
        CmYaw       : 0.000167875	(pressure: 0.000162738	viscous: 5.13788e-06)
        Cd(f)    : 0.00315875
        Cd(r)    : 0.00355627
        Cs(f)    : 0.000167875
        Cs(r)    : -0.000167875
        Cl(f)    : 0.00184707
        Cl(r)    : 0.00610325
Time = 46

DILUPBiCG:  Solving for Ux, Initial residual = 0.071246, Final residual = 0.0045255, No Iterations 4
DILUPBiCG:  Solving for Uy, Initial residual = 0.10758, Final residual = 0.00869139, No Iterations 3
GAMG:  Solving for p, Initial residual = 0.0990523, Final residual = 0.00656581, No Iterations 3
time step continuity errors : sum local = 0.00380132, global = 0.000103569, cumulative = -0.000128348
ExecutionTime = 0.37 s  ClockTime = 0 s

forceCoeffs forces execute:
    Coefficients
        Cd       : 0.00657941	(pressure: 0.00639508	viscous: 0.000184323)
        Cs       : 1.63425e-20	(pressure: 0	viscous: 1.63425e-20)
        Cl       : 0.00825544	(pressure: 0.00820917	viscous: 4.62711e-05)
        CmRoll       : -0.000206386	(pressure: -0.000205229	viscous: -1.15678e-06)
        CmPitch       : -0.00310198	(pressure: -0.00340889	viscous: 0.00030691)
        CmYaw       : 0.000164485	(pressure: 0.000159877	viscous: 4.60807e-06)
        Cd(f)    : 0.00308332
        Cd(r)    : 0.00349609
        Cs(f)    : 0.000164485
        Cs(r)    : -0.000164485
        Cl(f)    : 0.00102574
        Cl(r)    : 0.0072297
Time = 47

DILUPBiCG:  Solving for Ux, Initial residual = 0.0708734, Final residual = 0.00228862, No Iterations 4
DILUPBiCG:  Solving for Uy, Initial residual = 0.104132, Final residual = 0.00900638, No Iterations 4
GAMG:  Solving for p, Initial residual = 0.105359, Final residual = 0.00620112, No Iterations 3
time step continuity errors : sum local = 0.00336782, global = 0.000124462, cumulative = -3.88568e-06
ExecutionTime = 0.38 s  ClockTime = 0 s

forceCoeffs forces execute:
    Coefficients
        Cd       : 0.00659608	(pressure: 0.00642936	viscous: 0.000166712)
        Cs       : 1.61954e-20	(pressure: 0	viscous: 1.61954e-20)
        Cl       : 0.00823962	(pressure: 0.00817763	viscous: 6.19905e-05)
        CmRoll       : -0.000205991	(pressure: -0.000204441	viscous: -1.54976e-06)
        CmPitch       : -0.0030361	(pressure: -0.00325581	viscous: 0.000219713)
        CmYaw       : 0.000164902	(pressure: 0.000160734	viscous: 4.16779e-06)
        Cd(f)    : 0.00309205
        Cd(r)    : 0.00350403
        Cs(f)    : 0.000164902
        Cs(r)    : -0.000164902
        Cl(f)    : 0.00108371
        Cl(r)    : 0.00715591
Time = 48

DILUPBiCG:  Solving for Ux, Initial residual = 0.071325, Final residual = 0.0018974, No Iterations 5
DILUPBiCG:  Solving for Uy, Initial residual = 0.106679, Final residual = 0.00338294, No Iterations 5
GAMG:  Solving for p, Initial residual = 0.103998, Final residual = 0.00693071, No Iterations 3
time step continuity errors : sum local = 0.00365325, global = 0.000124702, cumulative = 0.000120816
ExecutionTime = 0.39 s  ClockTime = 0 s

forceCoeffs forces execute:
    Coefficients
        Cd       : 0.00675131	(pressure: 0.00659643	viscous: 0.000154879)
        Cs       : 1.62199e-20	(pressure: 0	viscous: 1.62199e-20)
        Cl       : 0.00796574	(pressure: 0.00795852	viscous: 7.22078e-06)
        CmRoll       : -0.000199143	(pressure: -0.000198963	viscous: -1.8052e-07)
        CmPitch       : -0.00210621	(pressure: -0.00242114	viscous: 0.000314929)
        CmYaw       : 0.000168783	(pressure: 0.000164911	viscous: 3.87197e-06)
        Cd(f)    : 0.00317651
        Cd(r)    : 0.0035748
        Cs(f)    : 0.000168783
        Cs(r)    : -0.000168783
        Cl(f)    : 0.00187666
        Cl(r)    : 0.00608908
Time = 49

DILUPBiCG:  Solving for Ux, Initial residual = 0.073475, Final residual = 0.00730878, No Iterations 4
DILUPBiCG:  Solving for Uy, Initial residual = 0.111889, Final residual = 0.00655558, No Iterations 5
GAMG:  Solving for p, Initial residual = 0.101866, Final residual = 0.00761887, No Iterations 3
time step continuity errors : sum local = 0.00400558, global = 0.000146966, cumulative = 0.000267783
ExecutionTime = 0.4 s  ClockTime = 0 s

forceCoeffs forces execute:
    Coefficients
        Cd       : 0.00690031	(pressure: 0.00677633	viscous: 0.000123979)
        Cs       : 1.5987e-20	(pressure: 0	viscous: 1.5987e-20)
        Cl       : 0.00753135	(pressure: 0.0076139	viscous: -8.25492e-05)
        CmRoll       : -0.000188284	(pressure: -0.000190348	viscous: 2.06373e-06)
        CmPitch       : -0.000844774	(pressure: -0.0013007	viscous: 0.000455928)
        CmYaw       : 0.000172508	(pressure: 0.000169408	viscous: 3.09947e-06)
        Cd(f)    : 0.00326187
        Cd(r)    : 0.00363844
        Cs(f)    : 0.000172508
        Cs(r)    : -0.000172508
        Cl(f)    : 0.0029209
        Cl(r)    : 0.00461045
Time = 50

DILUPBiCG:  Solving for Ux, Initial residual = 0.0762854, Final residual = 0.00214597, No Iterations 5
DILUPBiCG:  Solving for Uy, Initial residual = 0.119031, Final residual = 0.00736551, No Iterations 3
GAMG:  Solving for p, Initial residual = 0.101639, Final residual = 0.00743163, No Iterations 3
time step continuity errors : sum local = 0.00399251, global = 0.000187203, cumulative = 0.000454986
ExecutionTime = 0.4 s  ClockTime = 0 s

forceCoeffs forces execute:
    Coefficients
        Cd       : 0.00700226	(pressure: 0.00692161	viscous: 8.06501e-05)
        Cs       : 1.56313e-20	(pressure: 0	viscous: 1.56313e-20)
        Cl       : 0.00704557	(pressure: 0.0072272	viscous: -0.000181634)
        CmRoll       : -0.000176139	(pressure: -0.00018068	viscous: 4.54086e-06)
        CmPitch       : 0.000434436	(pressure: -0.000164758	viscous: 0.000599194)
        CmYaw       : 0.000175057	(pressure: 0.00017304	viscous: 2.01625e-06)
        Cd(f)    : 0.00332499
        Cd(r)    : 0.00367727
        Cs(f)    : 0.000175057
        Cs(r)    : -0.000175057
        Cl(f)    : 0.00395722
        Cl(r)    : 0.00308835
Time = 51

DILUPBiCG:  Solving for Ux, Initial residual = 0.0757605, Final residual = 0.00603653, No Iterations 5
DILUPBiCG:  Solving for Uy, Initial residual = 0.123647, Final residual = 0.0117783, No Iterations 3
GAMG:  Solving for p, Initial residual = 0.10769, Final residual = 0.00751589, No Iterations 3
time step continuity errors : sum local = 0.00409853, global = 0.000230131, cumulative = 0.000685117
ExecutionTime = 0.41 s  ClockTime = 0 s

forceCoeffs forces execute:
    Coefficients
        Cd       : 0.00705369	(pressure: 0.00698693	viscous: 6.67643e-05)
        Cs       : 1.53088e-20	(pressure: 0	viscous: 1.53088e-20)
        Cl       : 0.00659172	(pressure: 0.00689828	viscous: -0.000306561)
        CmRoll       : -0.000164793	(pressure: -0.000172457	viscous: 7.66403e-06)
        CmPitch       : 0.00155077	(pressure: 0.000680873	viscous: 0.000869897)
        CmYaw       : 0.000176342	(pressure: 0.000174673	viscous: 1.66911e-06)
        Cd(f)    : 0.00336205
        Cd(r)    : 0.00369164
        Cs(f)    : 0.000176342
        Cs(r)    : -0.000176342
        Cl(f)    : 0.00484663
        Cl(r)    : 0.00174509
Time = 52

DILUPBiCG:  Solving for Ux, Initial residual = 0.0750119, Final residual = 0.00541457, No Iterations 4
DILUPBiCG:  Solving for Uy, Initial residual = 0.121536, Final residual = 0.00612297, No Iterations 5
GAMG:  Solving for p, Initial residual = 0.0991256, Final residual = 0.00624303, No Iterations 3
time step continuity errors : sum local = 0.00339442, global = 8.5895e-05, cumulative = 0.000771012
ExecutionTime = 0.42 s  ClockTime = 0 s

forceCoeffs forces execute:
    Coefficients
        Cd       : 0.00716688	(pressure: 0.00709056	viscous: 7.63124e-05)
        Cs       : 1.5317e-20	(pressure: 0	viscous: 1.5317e-20)
        Cl       : 0.00636522	(pressure: 0.00672245	viscous: -0.000357236)
        CmRoll       : -0.00015913	(pressure: -0.000168061	viscous: 8.93089e-06)
        CmPitch       : 0.00229744	(pressure: 0.00128278	viscous: 0.00101466)
        CmYaw       : 0.000179172	(pressure: 0.000177264	viscous: 1.90781e-06)
        Cd(f)    : 0.00342431
        Cd(r)    : 0.00374257
        Cs(f)    : 0.000179172
        Cs(r)    : -0.000179172
        Cl(f)    : 0.00548005
        Cl(r)    : 0.000885169
Time = 53

DILUPBiCG:  Solving for Ux, Initial residual = 0.0750293, Final residual = 0.0040651, No Iterations 4
DILUPBiCG:  Solving for Uy, Initial residual = 0.117211, Final residual = 0.00986149, No Iterations 6
GAMG:  Solving for p, Initial residual = 0.0945921, Final residual = 0.0061696, No Iterations 3
time step continuity errors : sum local = 0.00327801, global = -0.000124001, cumulative = 0.000647011
ExecutionTime = 0.43 s  ClockTime = 0 s

forceCoeffs forces execute:
    Coefficients
        Cd       : 0.00720331	(pressure: 0.00709572	viscous: 0.000107588)
        Cs       : 1.53738e-20	(pressure: 0	viscous: 1.53738e-20)
        Cl       : 0.00638371	(pressure: 0.00673308	viscous: -0.000349365)
        CmRoll       : -0.000159593	(pressure: -0.000168327	viscous: 8.73412e-06)
        CmPitch       : 0.00233936	(pressure: 0.00126716	viscous: 0.0010722)
        CmYaw       : 0.000180083	(pressure: 0.000177393	viscous: 2.68969e-06)
        Cd(f)    : 0.00344206
        Cd(r)    : 0.00376125
        Cs(f)    : 0.000180083
        Cs(r)    : -0.000180083
        Cl(f)    : 0.00553121
        Cl(r)    : 0.000852497
Time = 54

DILUPBiCG:  Solving for Ux, Initial residual = 0.074787, Final residual = 0.00383709, No Iterations 4
DILUPBiCG:  Solving for Uy, Initial residual = 0.11932, Final residual = 0.00346903, No Iterations 7
GAMG:  Solving for p, Initial residual = 0.0907364, Final residual = 0.00671479, No Iterations 3
time step continuity errors : sum local = 0.00357535, global = -0.000198884, cumulative = 0.000448128
ExecutionTime = 0.43 s  ClockTime = 0 s

forceCoeffs forces execute:
    Coefficients
        Cd       : 0.00714753	(pressure: 0.00699419	viscous: 0.000153345)
        Cs       : 1.56293e-20	(pressure: 0	viscous: 1.56293e-20)
        Cl       : 0.00665006	(pressure: 0.0069491	viscous: -0.000299039)
        CmRoll       : -0.000166252	(pressure: -0.000173728	viscous: 7.47597e-06)
        CmPitch       : 0.0016438	(pressure: 0.000580749	viscous: 0.00106305)
        CmYaw       : 0.000178688	(pressure: 0.000174855	viscous: 3.83362e-06)
        Cd(f)    : 0.00340751
        Cd(r)    : 0.00374002
        Cs(f)    : 0.000178688
        Cs(r)    : -0.000178688
        Cl(f)    : 0.00496883
        Cl(r)    : 0.00168123
Time = 55

DILUPBiCG:  Solving for Ux, Initial residual = 0.0739239, Final residual = 0.00209471, No Iterations 5
DILUPBiCG:  Solving for Uy, Initial residual = 0.119067, Final residual = 0.0054168, No Iterations 4
GAMG:  Solving for p, Initial residual = 0.0932574, Final residual = 0.00706967, No Iterations 3
time step continuity errors : sum local = 0.00380962, global = -0.000147786, cumulative = 0.000300342
ExecutionTime = 0.44 s  ClockTime = 0 s

forceCoeffs forces execute:
    Coefficients
        Cd       : 0.00701239	(pressure: 0.00681625	viscous: 0.000196137)
        Cs       : 1.65681e-20	(pressure: 0	viscous: 1.65681e-20)
        Cl       : 0.00710404	(pressure: 0.00731762	viscous: -0.000213583)
        CmRoll       : -0.000177601	(pressure: -0.000182941	viscous: 5.33957e-06)
        CmPitch       : 0.000366501	(pressure: -0.000595904	viscous: 0.000962405)
        CmYaw       : 0.00017531	(pressure: 0.000170406	viscous: 4.90342e-06)
        Cd(f)    : 0.00332859
        Cd(r)    : 0.0036838
        Cs(f)    : 0.00017531
        Cs(r)    : -0.00017531
        Cl(f)    : 0.00391852
        Cl(r)    : 0.00318552
Time = 56

DILUPBiCG:  Solving for Ux, Initial residual = 0.0731805, Final residual = 0.00721345, No Iterations 4
DILUPBiCG:  Solving for Uy, Initial residual = 0.119321, Final residual = 0.00734548, No Iterations 4
GAMG:  Solving for p, Initial residual = 0.0909969, Final residual = 0.00642842, No Iterations 3
time step continuity errors : sum local = 0.00355893, global = -0.000221673, cumulative = 7.86688e-05
ExecutionTime = 0.44 s  ClockTime = 0 s

forceCoeffs forces execute:
    Coefficients
        Cd       : 0.00685577	(pressure: 0.00664085	viscous: 0.000214922)
        Cs       : 1.67305e-20	(pressure: 0	viscous: 1.67305e-20)
        Cl       : 0.00761232	(pressure: 0.00773226	viscous: -0.000119936)
        CmRoll       : -0.000190308	(pressure: -0.000193306	viscous: 2.99839e-06)
        CmPitch       : -0.00107801	(pressure: -0.00186179	viscous: 0.000783781)
        CmYaw       : 0.000171394	(pressure: 0.000166021	viscous: 5.37305e-06)
        Cd(f)    : 0.00323758
        Cd(r)    : 0.00361819
        Cs(f)    : 0.000171394
        Cs(r)    : -0.000171394
        Cl(f)    : 0.00272815
        Cl(r)    : 0.00488417
Time = 57

DILUPBiCG:  Solving for Ux, Initial residual = 0.0739194, Final residual = 0.00582118, No Iterations 4
DILUPBiCG:  Solving for Uy, Initial residual = 0.114775, Final residual = 0.00174521, No Iterations 5
GAMG:  Solving for p, Initial residual = 0.100986, Final residual = 0.00708483, No Iterations 3
time step continuity errors : sum local = 0.00394969, global = -0.000113544, cumulative = -3.4875e-05
ExecutionTime = 0.45 s  ClockTime = 0 s

forceCoeffs forces execute:
    Coefficients
        Cd       : 0.00669479	(pressure: 0.00648496	viscous: 0.000209834)
        Cs       : 1.72454e-20	(pressure: 0	viscous: 1.72454e-20)
        Cl       : 0.00806603	(pressure: 0.0080798	viscous: -1.37759e-05)
        CmRoll       : -0.000201651	(pressure: -0.000201995	viscous: 3.44397e-07)
        CmPitch       : -0.0024273	(pressure: -0.00294137	viscous: 0.000514067)
        CmYaw       : 0.00016737	(pressure: 0.000162124	viscous: 5.24586e-06)
        Cd(f)    : 0.00314574
        Cd(r)    : 0.00354905
        Cs(f)    : 0.00016737
        Cs(r)    : -0.00016737
        Cl(f)    : 0.00160572
        Cl(r)    : 0.00646031
Time = 58

DILUPBiCG:  Solving for Ux, Initial residual = 0.0735208, Final residual = 0.00343808, No Iterations 4
DILUPBiCG:  Solving for Uy, Initial residual = 0.109077, Final residual = 0.00763457, No Iterations 3
GAMG:  Solving for p, Initial residual = 0.103833, Final residual = 0.00646695, No Iterations 3
time step continuity errors : sum local = 0.00370128, global = -0.000105617, cumulative = -0.000140492
ExecutionTime = 0.45 s  ClockTime = 0 s

forceCoeffs forces execute:
    Coefficients
        Cd       : 0.00658879	(pressure: 0.0064027	viscous: 0.000186084)
        Cs       : 1.6598e-20	(pressure: 0	viscous: 1.6598e-20)
        Cl       : 0.00829078	(pressure: 0.00821547	viscous: 7.53099e-05)
        CmRoll       : -0.000207269	(pressure: -0.000205387	viscous: -1.88275e-06)
        CmPitch       : -0.00316142	(pressure: -0.00339978	viscous: 0.000238358)
        CmYaw       : 0.00016472	(pressure: 0.000160068	viscous: 4.65211e-06)
        Cd(f)    : 0.00308712
        Cd(r)    : 0.00350166
        Cs(f)    : 0.00016472
        Cs(r)    : -0.00016472
        Cl(f)    : 0.000983969
        Cl(r)    : 0.00730681
Time = 59

DILUPBiCG:  Solving for Ux, Initial residual = 0.0745253, Final residual = 0.00177653, No Iterations 4
DILUPBiCG:  Solving for Uy, Initial residual = 0.106981, Final residual = 0.00180633, No Iterations 5
GAMG:  Solving for p, Initial residual = 0.10343, Final residual = 0.00633802, No Iterations 3
time step continuity errors : sum local = 0.00348153, global = -6.55118e-05, cumulative = -0.000206004
ExecutionTime = 0.47 s  ClockTime = 0 s

forceCoeffs forces execute:
    Coefficients
        Cd       : 0.00670036	(pressure: 0.00652169	viscous: 0.000178673)
        Cs       : 1.63778e-20	(pressure: 0	viscous: 1.63778e-20)
        Cl       : 0.00816745	(pressure: 0.00811426	viscous: 5.31917e-05)
        CmRoll       : -0.000204186	(pressure: -0.000202856	viscous: -1.32979e-06)
        CmPitch       : -0.00265032	(pressure: -0.00291448	viscous: 0.000264164)
        CmYaw       : 0.000167509	(pressure: 0.000163042	viscous: 4.46683e-06)
        Cd(f)    : 0.00314599
        Cd(r)    : 0.00355437
        Cs(f)    : 0.000167509
        Cs(r)    : -0.000167509
        Cl(f)    : 0.00143341
        Cl(r)    : 0.00673404
Time = 60

DILUPBiCG:  Solving for Ux, Initial residual = 0.0755095, Final residual = 0.00119572, No Iterations 5
DILUPBiCG:  Solving for Uy, Initial residual = 0.113046, Final residual = 0.00426583, No Iterations 5
GAMG:  Solving for p, Initial residual = 0.0976772, Final residual = 0.00693432, No Iterations 3
time step continuity errors : sum local = 0.00376357, global = 1.48009e-06, cumulative = -0.000204523
ExecutionTime = 0.47 s  ClockTime = 0 s

forceCoeffs forces execute:
    Coefficients
        Cd       : 0.00690068	(pressure: 0.00673801	viscous: 0.000162671)
        Cs       : 1.62652e-20	(pressure: 0	viscous: 1.62652e-20)
        Cl       : 0.00782138	(pressure: 0.00784957	viscous: -2.81944e-05)
        CmRoll       : -0.000195534	(pressure: -0.000196239	viscous: 7.04859e-07)
        CmPitch       : -0.0014662	(pressure: -0.00188118	viscous: 0.000414982)
        CmYaw       : 0.000172517	(pressure: 0.00016845	viscous: 4.06676e-06)
        Cd(f)    : 0.0032548
        Cd(r)    : 0.00364587
        Cs(f)    : 0.000172517
        Cs(r)    : -0.000172517
        Cl(f)    : 0.00244449
        Cl(r)    : 0.00537689
Time = 61

DILUPBiCG:  Solving for Ux, Initial residual = 0.0772005, Final residual = 0.00464807, No Iterations 5
DILUPBiCG:  Solving for Uy, Initial residual = 0.119648, Final residual = 0.0083795, No Iterations 5
GAMG:  Solving for p, Initial residual = 0.0925495, Final residual = 0.00704384, No Iterations 3
time step continuity errors : sum local = 0.00387562, global = 0.000121512, cumulative = -8.30114e-05
ExecutionTime = 0.48 s  ClockTime = 0 s

forceCoeffs forces execute:
    Coefficients
        Cd       : 0.00702165	(pressure: 0.00690764	viscous: 0.000114015)
        Cs       : 1.58888e-20	(pressure: 0	viscous: 1.58888e-20)
        Cl       : 0.00732673	(pressure: 0.00745316	viscous: -0.000126431)
        CmRoll       : -0.000183168	(pressure: -0.000186329	viscous: 3.16078e-06)
        CmPitch       : -0.000134217	(pressure: -0.000673768	viscous: 0.000539551)
        CmYaw       : 0.000175541	(pressure: 0.000172691	viscous: 2.85038e-06)
        Cd(f)    : 0.00332766
        Cd(r)    : 0.003694
        Cs(f)    : 0.000175541
        Cs(r)    : -0.000175541
        Cl(f)    : 0.00352915
        Cl(r)    : 0.00379758
Time = 62

DILUPBiCG:  Solving for Ux, Initial residual = 0.078925, Final residual = 0.00638474, No Iterations 5
DILUPBiCG:  Solving for Uy, Initial residual = 0.124959, Final residual = 0.0103719, No Iterations 3
GAMG:  Solving for p, Initial residual = 0.100065, Final residual = 0.00722394, No Iterations 3
time step continuity errors : sum local = 0.00403335, global = 0.000185479, cumulative = 0.000102468
ExecutionTime = 0.48 s  ClockTime = 0 s

forceCoeffs forces execute:
    Coefficients
[...]
        CmRoll       : -0.000162344	(pressure: -0.000170957	viscous: 8.61253e-06)
        CmPitch       : 0.00227519	(pressure: 0.00117868	viscous: 0.00109651)
        CmYaw       : 0.000182028	(pressure: 0.00017898	viscous: 3.04849e-06)
        Cd(f)    : 0.00347822
        Cd(r)    : 0.00380291
        Cs(f)    : 0.000182028
        Cs(r)    : -0.000182028
        Cl(f)    : 0.00552208
        Cl(r)    : 0.000971692
Time = 991

DILUPBiCG:  Solving for Ux, Initial residual = 0.0759997, Final residual = 0.00470797, No Iterations 4
DILUPBiCG:  Solving for Uy, Initial residual = 0.122159, Final residual = 0.00695562, No Iterations 6
GAMG:  Solving for p, Initial residual = 0.0867636, Final residual = 0.00648049, No Iterations 3
time step continuity errors : sum local = 0.00362561, global = -0.000124542, cumulative = -0.0521111
ExecutionTime = 5.98 s  ClockTime = 6 s

forceCoeffs forces execute:
    Coefficients
        Cd       : 0.00718344	(pressure: 0.00701049	viscous: 0.000172945)
        Cs       : 1.59791e-20	(pressure: 0	viscous: 1.59791e-20)
        Cl       : 0.00687663	(pressure: 0.0071464	viscous: -0.000269766)
        CmRoll       : -0.000171916	(pressure: -0.00017866	viscous: 6.74414e-06)
        CmPitch       : 0.00123439	(pressure: 0.00019322	viscous: 0.00104117)
        CmYaw       : 0.000179586	(pressure: 0.000175262	viscous: 4.32362e-06)
        Cd(f)    : 0.0034198
        Cd(r)    : 0.00376363
        Cs(f)    : 0.000179586
        Cs(r)    : -0.000179586
        Cl(f)    : 0.00467271
        Cl(r)    : 0.00220393
Time = 992

DILUPBiCG:  Solving for Ux, Initial residual = 0.0752266, Final residual = 0.00746149, No Iterations 4
DILUPBiCG:  Solving for Uy, Initial residual = 0.120523, Final residual = 0.00719374, No Iterations 4
GAMG:  Solving for p, Initial residual = 0.0924611, Final residual = 0.00646618, No Iterations 3
time step continuity errors : sum local = 0.00360614, global = -0.00016264, cumulative = -0.0522737
ExecutionTime = 5.98 s  ClockTime = 6 s

forceCoeffs forces execute:
    Coefficients
        Cd       : 0.00702075	(pressure: 0.00681046	viscous: 0.00021029)
        Cs       : 1.65472e-20	(pressure: 0	viscous: 1.65472e-20)
        Cl       : 0.00739061	(pressure: 0.00756462	viscous: -0.000174007)
        CmRoll       : -0.000184765	(pressure: -0.000189115	viscous: 4.35017e-06)
        CmPitch       : -0.000234523	(pressure: -0.00113661	viscous: 0.00090209)
        CmYaw       : 0.000175519	(pressure: 0.000170262	viscous: 5.25724e-06)
        Cd(f)    : 0.00332561
        Cd(r)    : 0.00369514
        Cs(f)    : 0.000175519
        Cs(r)    : -0.000175519
        Cl(f)    : 0.00346078
        Cl(r)    : 0.00392983
Time = 993

DILUPBiCG:  Solving for Ux, Initial residual = 0.0748851, Final residual = 0.00651172, No Iterations 4
DILUPBiCG:  Solving for Uy, Initial residual = 0.120153, Final residual = 0.00727546, No Iterations 4
GAMG:  Solving for p, Initial residual = 0.0962527, Final residual = 0.00677623, No Iterations 3
time step continuity errors : sum local = 0.00377613, global = -0.000191656, cumulative = -0.0524654
ExecutionTime = 5.99 s  ClockTime = 6 s

forceCoeffs forces execute:
    Coefficients
        Cd       : 0.00684283	(pressure: 0.00662564	viscous: 0.000217192)
        Cs       : 1.68597e-20	(pressure: 0	viscous: 1.68597e-20)
        Cl       : 0.0079098	(pressure: 0.00798349	viscous: -7.36857e-05)
        CmRoll       : -0.000197745	(pressure: -0.000199587	viscous: 1.84214e-06)
        CmPitch       : -0.00175287	(pressure: -0.00243092	viscous: 0.000678043)
        CmYaw       : 0.000171071	(pressure: 0.000165641	viscous: 5.42981e-06)
        Cd(f)    : 0.00322367
        Cd(r)    : 0.00361916
        Cs(f)    : 0.000171071
        Cs(r)    : -0.000171071
        Cl(f)    : 0.00220203
        Cl(r)    : 0.00570777
Time = 994

DILUPBiCG:  Solving for Ux, Initial residual = 0.0744374, Final residual = 0.00496159, No Iterations 4
DILUPBiCG:  Solving for Uy, Initial residual = 0.113926, Final residual = 0.00530877, No Iterations 4
GAMG:  Solving for p, Initial residual = 0.103852, Final residual = 0.00702324, No Iterations 3
time step continuity errors : sum local = 0.003953, global = -0.000140519, cumulative = -0.0526059
ExecutionTime = 6 s  ClockTime = 6 s

forceCoeffs forces execute:
    Coefficients
        Cd       : 0.00664436	(pressure: 0.00644366	viscous: 0.000200694)
        Cs       : 1.67875e-20	(pressure: 0	viscous: 1.67875e-20)
        Cl       : 0.00830384	(pressure: 0.00825895	viscous: 4.48851e-05)
        CmRoll       : -0.000207596	(pressure: -0.000206474	viscous: -1.12213e-06)
        CmPitch       : -0.00306154	(pressure: -0.00341105	viscous: 0.000349503)
        CmYaw       : 0.000166109	(pressure: 0.000161092	viscous: 5.01736e-06)
        Cd(f)    : 0.00311458
        Cd(r)    : 0.00352977
        Cs(f)    : 0.000166109
        Cs(r)    : -0.000166109
        Cl(f)    : 0.00109038
        Cl(r)    : 0.00721346
Time = 995

DILUPBiCG:  Solving for Ux, Initial residual = 0.0745077, Final residual = 0.00266665, No Iterations 4
DILUPBiCG:  Solving for Uy, Initial residual = 0.109093, Final residual = 0.0105438, No Iterations 3
GAMG:  Solving for p, Initial residual = 0.106249, Final residual = 0.0063362, No Iterations 3
time step continuity errors : sum local = 0.00349579, global = -0.000142908, cumulative = -0.0527488
ExecutionTime = 6 s  ClockTime = 6 s

forceCoeffs forces execute:
    Coefficients
        Cd       : 0.00661487	(pressure: 0.0064307	viscous: 0.000184175)
        Cs       : 1.6406e-20	(pressure: 0	viscous: 1.6406e-20)
        Cl       : 0.00836637	(pressure: 0.00827984	viscous: 8.65294e-05)
        CmRoll       : -0.000209159	(pressure: -0.000206996	viscous: -2.16324e-06)
        CmPitch       : -0.00327199	(pressure: -0.00347335	viscous: 0.000201365)
        CmYaw       : 0.000165372	(pressure: 0.000160767	viscous: 4.60437e-06)
        Cd(f)    : 0.00309828
        Cd(r)    : 0.0035166
        Cs(f)    : 0.000165372
        Cs(r)    : -0.000165372
        Cl(f)    : 0.0009112
        Cl(r)    : 0.00745517
Time = 996

DILUPBiCG:  Solving for Ux, Initial residual = 0.0758662, Final residual = 0.00373152, No Iterations 4
DILUPBiCG:  Solving for Uy, Initial residual = 0.109361, Final residual = 0.00248414, No Iterations 5
GAMG:  Solving for p, Initial residual = 0.10542, Final residual = 0.00666927, No Iterations 3
time step continuity errors : sum local = 0.00356812, global = -9.03078e-05, cumulative = -0.0528391
ExecutionTime = 6.01 s  ClockTime = 6 s

forceCoeffs forces execute:
    Coefficients
        Cd       : 0.00680218	(pressure: 0.00662864	viscous: 0.000173535)
        Cs       : 1.63777e-20	(pressure: 0	viscous: 1.63777e-20)
        Cl       : 0.00812674	(pressure: 0.00809178	viscous: 3.49576e-05)
        CmRoll       : -0.000203168	(pressure: -0.000202295	viscous: -8.7394e-07)
        CmPitch       : -0.00234327	(pressure: -0.0026341	viscous: 0.000290831)
        CmYaw       : 0.000170054	(pressure: 0.000165716	viscous: 4.33838e-06)
        Cd(f)    : 0.00319792
        Cd(r)    : 0.00360426
        Cs(f)    : 0.000170054
        Cs(r)    : -0.000170054
        Cl(f)    : 0.0017201
        Cl(r)    : 0.00640664
Time = 997

DILUPBiCG:  Solving for Ux, Initial residual = 0.0767509, Final residual = 0.00211345, No Iterations 5
DILUPBiCG:  Solving for Uy, Initial residual = 0.116337, Final residual = 0.00602116, No Iterations 5
GAMG:  Solving for p, Initial residual = 0.0972911, Final residual = 0.00721253, No Iterations 3
time step continuity errors : sum local = 0.00386172, global = -3.83568e-05, cumulative = -0.0528775
ExecutionTime = 6.01 s  ClockTime = 6 s

forceCoeffs forces execute:
    Coefficients
        Cd       : 0.0069956	(pressure: 0.00685048	viscous: 0.00014512)
        Cs       : 1.62062e-20	(pressure: 0	viscous: 1.62062e-20)
        Cl       : 0.00770597	(pressure: 0.00776496	viscous: -5.8994e-05)
        CmRoll       : -0.000192649	(pressure: -0.000194124	viscous: 1.47485e-06)
        CmPitch       : -0.00101451	(pressure: -0.00146099	viscous: 0.000446479)
        CmYaw       : 0.00017489	(pressure: 0.000171262	viscous: 3.62799e-06)
        Cd(f)    : 0.00330515
        Cd(r)    : 0.00369045
        Cs(f)    : 0.00017489
        Cs(r)    : -0.00017489
        Cl(f)    : 0.00283847
        Cl(r)    : 0.00486749
Time = 998

DILUPBiCG:  Solving for Ux, Initial residual = 0.0786099, Final residual = 0.00220369, No Iterations 5
DILUPBiCG:  Solving for Uy, Initial residual = 0.122646, Final residual = 0.0104177, No Iterations 3
GAMG:  Solving for p, Initial residual = 0.0951152, Final residual = 0.00721649, No Iterations 3
time step continuity errors : sum local = 0.00395368, global = 6.80267e-05, cumulative = -0.0528094
ExecutionTime = 6.01 s  ClockTime = 6 s

forceCoeffs forces execute:
    Coefficients
        Cd       : 0.0071057	(pressure: 0.00701508	viscous: 9.06296e-05)
        Cs       : 1.58108e-20	(pressure: 0	viscous: 1.58108e-20)
        Cl       : 0.0071927	(pressure: 0.00735259	viscous: -0.000159886)
        CmRoll       : -0.000179817	(pressure: -0.000183815	viscous: 3.99716e-06)
        CmPitch       : 0.00033704	(pressure: -0.000230316	viscous: 0.000567356)
        CmYaw       : 0.000177643	(pressure: 0.000175377	viscous: 2.26574e-06)
        Cd(f)    : 0.00337303
        Cd(r)    : 0.00373267
        Cs(f)    : 0.000177643
        Cs(r)    : -0.000177643
        Cl(f)    : 0.00393339
        Cl(r)    : 0.00325931
Time = 999

DILUPBiCG:  Solving for Ux, Initial residual = 0.0782532, Final residual = 0.00160991, No Iterations 6
DILUPBiCG:  Solving for Uy, Initial residual = 0.127343, Final residual = 0.0121681, No Iterations 3
GAMG:  Solving for p, Initial residual = 0.102014, Final residual = 0.00744119, No Iterations 3
time step continuity errors : sum local = 0.00416642, global = 0.000121908, cumulative = -0.0526875
ExecutionTime = 6.02 s  ClockTime = 6 s

forceCoeffs forces execute:
    Coefficients
        Cd       : 0.00714322	(pressure: 0.00709146	viscous: 5.17638e-05)
        Cs       : 1.54394e-20	(pressure: 0	viscous: 1.54394e-20)
        Cl       : 0.00668148	(pressure: 0.00697117	viscous: -0.000289696)
        CmRoll       : -0.000167037	(pressure: -0.000174279	viscous: 7.24239e-06)
        CmPitch       : 0.00154938	(pressure: 0.000752285	viscous: 0.000797095)
        CmYaw       : 0.00017858	(pressure: 0.000177286	viscous: 1.29409e-06)
        Cd(f)    : 0.00340457
        Cd(r)    : 0.00373865
        Cs(f)    : 0.00017858
        Cs(r)    : -0.00017858
        Cl(f)    : 0.00489012
        Cl(r)    : 0.00179136
Time = 1000

DILUPBiCG:  Solving for Ux, Initial residual = 0.0772256, Final residual = 0.00546847, No Iterations 4
DILUPBiCG:  Solving for Uy, Initial residual = 0.125349, Final residual = 0.00644312, No Iterations 5
GAMG:  Solving for p, Initial residual = 0.0986315, Final residual = 0.00640535, No Iterations 3
time step continuity errors : sum local = 0.00356311, global = 3.36904e-05, cumulative = -0.0526538
ExecutionTime = 6.03 s  ClockTime = 6 s

forceCoeffs forces execute:
    Coefficients
        Cd       : 0.00724024	(pressure: 0.00717801	viscous: 6.22219e-05)
        Cs       : 1.54866e-20	(pressure: 0	viscous: 1.54866e-20)
        Cl       : 0.00637192	(pressure: 0.00673678	viscous: -0.000364859)
        CmRoll       : -0.000159298	(pressure: -0.000168419	viscous: 9.12149e-06)
        CmPitch       : 0.00244359	(pressure: 0.00144323	viscous: 0.00100036)
        CmYaw       : 0.000181006	(pressure: 0.00017945	viscous: 1.55555e-06)
        Cd(f)    : 0.00346082
        Cd(r)    : 0.00377942
        Cs(f)    : 0.000181006
        Cs(r)    : -0.000181006
        Cl(f)    : 0.00562955
        Cl(r)    : 0.000742371
End

Finalising parallel run
/*---------------------------------------------------------------------------*\
| =========                 |                                                 |
| \\      /  F ield         | OpenFOAM: The Open Source CFD Toolbox           |
|  \\    /   O peration     | Version:  2006                                  |
|   \\  /    A nd           | Website:  www.openfoam.com                      |
|    \\/     M anipulation  |                                                 |
\*---------------------------------------------------------------------------*/
Build  : 295eef47-20201012 OPENFOAM=2006 patch=201012
Arch   : "LSB;label=32;scalar=64"
Exec   : reconstructPar
Date   : Jun 08 2021
Time   : 23:20:59
Host   : pc-HP-Z440-Workstation
PID    : 923
I/O    : uncollated
Case   : /home/pc/flowAroundTriangles/simple_laminar
nProcs : 1
trapFpe: Floating point exception trapping enabled (FOAM_SIGFPE).
fileModificationChecking : Monitoring run-time modified files using timeStampMaster (fileModificationSkew 5, maxFileModificationPolls 20)
allowSystemOperations : Allowing user-supplied system call operations

// * * * * * * * * * * * * * * * * * * * * * * * * * * * * * * * * * * * * * //
Create time

--> FOAM Warning : 
    From static Foam::IOstreamOption::compressionType Foam::IOstreamOption::compressionEnum(const Foam::word&, Foam::IOstreamOption::compressionType)
    in file db/IOstreams/IOstreams/IOstreamOption.C at line 115
    Unknown compression specifier 'uncompressed', using compression off
--> FOAM Warning : 
    From static Foam::IOstreamOption::compressionType Foam::IOstreamOption::compressionEnum(const Foam::word&, Foam::IOstreamOption::compressionType)
    in file db/IOstreams/IOstreams/IOstreamOption.C at line 115
    Unknown compression specifier 'uncompressed', using compression off
--> FOAM Warning : 
    From static Foam::IOstreamOption::compressionType Foam::IOstreamOption::compressionEnum(const Foam::word&, Foam::IOstreamOption::compressionType)
    in file db/IOstreams/IOstreams/IOstreamOption.C at line 115
    Unknown compression specifier 'uncompressed', using compression off
--> FOAM Warning : 
    From static Foam::IOstreamOption::compressionType Foam::IOstreamOption::compressionEnum(const Foam::word&, Foam::IOstreamOption::compressionType)
    in file db/IOstreams/IOstreams/IOstreamOption.C at line 115
    Unknown compression specifier 'uncompressed', using compression off
--> FOAM Warning : 
    From static Foam::IOstreamOption::compressionType Foam::IOstreamOption::compressionEnum(const Foam::word&, Foam::IOstreamOption::compressionType)
    in file db/IOstreams/IOstreams/IOstreamOption.C at line 115
    Unknown compression specifier 'uncompressed', using compression off


Reconstructing fields for mesh region0

Time = 50

Reconstructing FV fields

    Reconstructing volScalarFields

        p

    Reconstructing volVectorFields

        U

    Reconstructing surfaceScalarFields

        phi

Reconstructing point fields

No point fields

No lagrangian fields

No FA fields

Time = 100

Reconstructing FV fields

    Reconstructing volScalarFields

        p

    Reconstructing volVectorFields

        U

    Reconstructing surfaceScalarFields

        phi

Reconstructing point fields

No point fields

No lagrangian fields

No FA fields

Time = 150

Reconstructing FV fields

    Reconstructing volScalarFields

        p

    Reconstructing volVectorFields

        U

    Reconstructing surfaceScalarFields

        phi

Reconstructing point fields

No point fields

No lagrangian fields

No FA fields

Time = 200

Reconstructing FV fields

    Reconstructing volScalarFields

        p

    Reconstructing volVectorFields

        U

    Reconstructing surfaceScalarFields

        phi

Reconstructing point fields

No point fields

No lagrangian fields

No FA fields

Time = 250

Reconstructing FV fields

    Reconstructing volScalarFields

        p

    Reconstructing volVectorFields

        U

    Reconstructing surfaceScalarFields

        phi

Reconstructing point fields

No point fields

No lagrangian fields

No FA fields

Time = 300

Reconstructing FV fields

    Reconstructing volScalarFields

        p

    Reconstructing volVectorFields

        U

    Reconstructing surfaceScalarFields

        phi

Reconstructing point fields

No point fields

No lagrangian fields

No FA fields

Time = 350

Reconstructing FV fields

    Reconstructing volScalarFields

        p

    Reconstructing volVectorFields

        U

    Reconstructing surfaceScalarFields

        phi

Reconstructing point fields

No point fields

No lagrangian fields

No FA fields

Time = 400

Reconstructing FV fields

    Reconstructing volScalarFields

        p

    Reconstructing volVectorFields

        U

    Reconstructing surfaceScalarFields

        phi

Reconstructing point fields

No point fields

No lagrangian fields

No FA fields

Time = 450

Reconstructing FV fields

    Reconstructing volScalarFields

        p

    Reconstructing volVectorFields

        U

    Reconstructing surfaceScalarFields

        phi

Reconstructing point fields

No point fields

No lagrangian fields

No FA fields

Time = 500

Reconstructing FV fields

    Reconstructing volScalarFields

        p

    Reconstructing volVectorFields

        U

    Reconstructing surfaceScalarFields

        phi

Reconstructing point fields

No point fields

No lagrangian fields

No FA fields

Time = 550

Reconstructing FV fields

    Reconstructing volScalarFields

        p

    Reconstructing volVectorFields

        U

    Reconstructing surfaceScalarFields

        phi

Reconstructing point fields

No point fields

No lagrangian fields

No FA fields

Time = 600

Reconstructing FV fields

    Reconstructing volScalarFields

        p

    Reconstructing volVectorFields

        U

    Reconstructing surfaceScalarFields

        phi

Reconstructing point fields

No point fields

No lagrangian fields

No FA fields

Time = 650

Reconstructing FV fields

    Reconstructing volScalarFields

        p

    Reconstructing volVectorFields

        U

    Reconstructing surfaceScalarFields

        phi

Reconstructing point fields

No point fields

No lagrangian fields

No FA fields

Time = 700

Reconstructing FV fields

    Reconstructing volScalarFields

        p

    Reconstructing volVectorFields

        U

    Reconstructing surfaceScalarFields

        phi

Reconstructing point fields

No point fields

No lagrangian fields

No FA fields

Time = 750

Reconstructing FV fields

    Reconstructing volScalarFields

        p

    Reconstructing volVectorFields

        U

    Reconstructing surfaceScalarFields

        phi

Reconstructing point fields

No point fields

No lagrangian fields

No FA fields

Time = 800

Reconstructing FV fields

    Reconstructing volScalarFields

        p

    Reconstructing volVectorFields

        U

    Reconstructing surfaceScalarFields

        phi

Reconstructing point fields

No point fields

No lagrangian fields

No FA fields

Time = 850

Reconstructing FV fields

    Reconstructing volScalarFields

        p

    Reconstructing volVectorFields

        U

    Reconstructing surfaceScalarFields

        phi

Reconstructing point fields

No point fields

No lagrangian fields

No FA fields

Time = 900

Reconstructing FV fields

    Reconstructing volScalarFields

        p

    Reconstructing volVectorFields

        U

    Reconstructing surfaceScalarFields

        phi

Reconstructing point fields

No point fields

No lagrangian fields

No FA fields

Time = 950

Reconstructing FV fields

    Reconstructing volScalarFields

        p

    Reconstructing volVectorFields

        U

    Reconstructing surfaceScalarFields

        phi

Reconstructing point fields

No point fields

No lagrangian fields

No FA fields

Time = 1000

Reconstructing FV fields

    Reconstructing volScalarFields

        p

    Reconstructing volVectorFields

        U

    Reconstructing surfaceScalarFields

        phi

Reconstructing point fields

No point fields

No lagrangian fields

No FA fields


End

